/*---------------------------------------------------------------------------*\
| =========                 |                                                 |
| \\      /  F ield         | OpenFOAM: The Open Source CFD Toolbox           |
|  \\    /   O peration     | Version:  v1812                                 |
|   \\  /    A nd           | Web:      www.OpenFOAM.com                      |
|    \\/     M anipulation  |                                                 |
\*---------------------------------------------------------------------------*/
Build  : 945f446c-20210216 OPENFOAM=1812
Arch   : "LSB;label=32;scalar=64"
Exec   : decomposePar
Date   : May 02 2021
Time   : 18:40:51
Host   : henning-AB350M-HD3
PID    : 7314
I/O    : uncollated
Case   : /media/henning/ssd1linux/libsAndApps/release/TwoPhaseFlow/testsuite/advection/test-discUniFlow
nProcs : 1
trapFpe: Floating point exception trapping enabled (FOAM_SIGFPE).
fileModificationChecking : Monitoring run-time modified files using timeStampMaster (fileModificationSkew 10)
allowSystemOperations : Allowing user-supplied system call operations

// * * * * * * * * * * * * * * * * * * * * * * * * * * * * * * * * * * * * * //
Create time

--> FOAM Warning : 
    From function static Foam::IOstreamOption::compressionType Foam::IOstreamOption::compressionEnum(const Foam::word&)
    in file db/IOstreams/IOstreams/IOstreamOption.C at line 86
    Unknown compression specifier 'compressed', assuming no compression


Decomposing mesh region0

Create mesh

Calculating distribution of cells
Selecting decompositionMethod scotch [6]

Finished decomposition in 0.01 s

Calculating original mesh data

Distributing cells to processors

Distributing faces to processors

Distributing points to processors

Constructing processor meshes
--> FOAM Warning : 
    From function static Foam::IOstreamOption::compressionType Foam::IOstreamOption::compressionEnum(const Foam::word&)
    in file db/IOstreams/IOstreams/IOstreamOption.C at line 86
    Unknown compression specifier 'compressed', assuming no compression

Processor 0
    Number of cells = 1000
    Number of faces shared with processor 1 = 25
    Number of faces shared with processor 2 = 25
    Number of faces shared with processor 3 = 20
    Number of processor patches = 3
    Number of processor faces = 70
    Number of boundary faces = 2070
--> FOAM Warning : 
    From function static Foam::IOstreamOption::compressionType Foam::IOstreamOption::compressionEnum(const Foam::word&)
    in file db/IOstreams/IOstreams/IOstreamOption.C at line 86
    Unknown compression specifier 'compressed', assuming no compression

Processor 1
    Number of cells = 1000
    Number of faces shared with processor 0 = 25
    Number of faces shared with processor 2 = 40
    Number of faces shared with processor 4 = 40
    Number of processor patches = 3
    Number of processor faces = 105
    Number of boundary faces = 2025
--> FOAM Warning : 
    From function static Foam::IOstreamOption::compressionType Foam::IOstreamOption::compressionEnum(const Foam::word&)
    in file db/IOstreams/IOstreams/IOstreamOption.C at line 86
    Unknown compression specifier 'compressed', assuming no compression

Processor 2
    Number of cells = 1000
    Number of faces shared with processor 0 = 25
    Number of faces shared with processor 1 = 40
    Number of processor patches = 2
    Number of processor faces = 65
    Number of boundary faces = 2065
--> FOAM Warning : 
    From function static Foam::IOstreamOption::compressionType Foam::IOstreamOption::compressionEnum(const Foam::word&)
    in file db/IOstreams/IOstreams/IOstreamOption.C at line 86
    Unknown compression specifier 'compressed', assuming no compression

Processor 3
    Number of cells = 1000
    Number of faces shared with processor 0 = 20
    Number of faces shared with processor 4 = 25
    Number of faces shared with processor 5 = 25
    Number of processor patches = 3
    Number of processor faces = 70
    Number of boundary faces = 2070
--> FOAM Warning : 
    From function static Foam::IOstreamOption::compressionType Foam::IOstreamOption::compressionEnum(const Foam::word&)
    in file db/IOstreams/IOstreams/IOstreamOption.C at line 86
    Unknown compression specifier 'compressed', assuming no compression

Processor 4
    Number of cells = 1000
    Number of faces shared with processor 1 = 40
    Number of faces shared with processor 3 = 25
    Number of faces shared with processor 5 = 40
    Number of processor patches = 3
    Number of processor faces = 105
    Number of boundary faces = 2025
--> FOAM Warning : 
    From function static Foam::IOstreamOption::compressionType Foam::IOstreamOption::compressionEnum(const Foam::word&)
    in file db/IOstreams/IOstreams/IOstreamOption.C at line 86
    Unknown compression specifier 'compressed', assuming no compression

Processor 5
    Number of cells = 1000
    Number of faces shared with processor 3 = 25
    Number of faces shared with processor 4 = 40
    Number of processor patches = 2
    Number of processor faces = 65
    Number of boundary faces = 2065

Number of processor faces = 240
Max number of cells = 1000 (0% above average 1000)
Max number of processor patches = 3 (12.5% above average 2.6666666666667)
Max number of faces between processors = 105 (31.25% above average 80)

Time = 0

Processor 0: field transfer
--> FOAM Warning : 
    From function static Foam::IOstreamOption::compressionType Foam::IOstreamOption::compressionEnum(const Foam::word&)
    in file db/IOstreams/IOstreams/IOstreamOption.C at line 86
    Unknown compression specifier 'compressed', assuming no compression
Processor 1: field transfer
--> FOAM Warning : 
    From function static Foam::IOstreamOption::compressionType Foam::IOstreamOption::compressionEnum(const Foam::word&)
    in file db/IOstreams/IOstreams/IOstreamOption.C at line 86
    Unknown compression specifier 'compressed', assuming no compression
Processor 2: field transfer
--> FOAM Warning : 
    From function static Foam::IOstreamOption::compressionType Foam::IOstreamOption::compressionEnum(const Foam::word&)
    in file db/IOstreams/IOstreams/IOstreamOption.C at line 86
    Unknown compression specifier 'compressed', assuming no compression
Processor 3: field transfer
--> FOAM Warning : 
    From function static Foam::IOstreamOption::compressionType Foam::IOstreamOption::compressionEnum(const Foam::word&)
    in file db/IOstreams/IOstreams/IOstreamOption.C at line 86
    Unknown compression specifier 'compressed', assuming no compression
Processor 4: field transfer
--> FOAM Warning : 
    From function static Foam::IOstreamOption::compressionType Foam::IOstreamOption::compressionEnum(const Foam::word&)
    in file db/IOstreams/IOstreams/IOstreamOption.C at line 86
    Unknown compression specifier 'compressed', assuming no compression
Processor 5: field transfer
--> FOAM Warning : 
    From function static Foam::IOstreamOption::compressionType Foam::IOstreamOption::compressionEnum(const Foam::word&)
    in file db/IOstreams/IOstreams/IOstreamOption.C at line 86
    Unknown compression specifier 'compressed', assuming no compression

End

