/*---------------------------------------------------------------------------*\
| =========                 |                                                 |
| \\      /  F ield         | OpenFOAM: The Open Source CFD Toolbox           |
|  \\    /   O peration     | Version:  v1812                                 |
|   \\  /    A nd           | Web:      www.OpenFOAM.com                      |
|    \\/     M anipulation  |                                                 |
\*---------------------------------------------------------------------------*/
Build  : 945f446c-20210216 OPENFOAM=1812
Arch   : "LSB;label=32;scalar=64"
Exec   : advectorVoF -parallel
Date   : May 02 2021
Time   : 18:40:52
Host   : henning-AB350M-HD3
PID    : 7376
I/O    : uncollated
Case   : /media/henning/ssd1linux/libsAndApps/release/TwoPhaseFlow/testsuite/advection/test-discUniFlow
nProcs : 6
Hosts  :
(
    (henning-AB350M-HD3 6)
)
Pstream initialized with:
    floatTransfer      : 0
    nProcsSimpleSum    : 0
    commsType          : nonBlocking
    polling iterations : 0
trapFpe: Floating point exception trapping enabled (FOAM_SIGFPE).
fileModificationChecking : Monitoring run-time modified files using timeStampMaster (fileModificationSkew 10)
allowSystemOperations : Allowing user-supplied system call operations

// * * * * * * * * * * * * * * * * * * * * * * * * * * * * * * * * * * * * * //
Create time

--> FOAM Warning : 
    From function static Foam::IOstreamOption::compressionType Foam::IOstreamOption::compressionEnum(const Foam::word&)
    in file db/IOstreams/IOstreams/IOstreamOption.C at line 86
    Unknown compression specifier 'compressed', assuming no compression
Create mesh for time = 0

Reading field U

Reading/calculating face flux field phi

Reading transportProperties

Selecting incompressible transport model Newtonian
Selecting incompressible transport model Newtonian
Reading field alpha1

sum(alpha*V) = 0.19453365401668, 1-max(alpha1) = 0	 min(alpha1) = 0
Selecting advectionSchemes: isoAdvection
Selecting reconstructionScheme: plicRDF
Courant Number mean: 0.030000000000001 max: 0.03
Interface Courant Number mean: 0.00014 max: 0.03
deltaT = 0.0033333333333333

Starting time loop

reverseTime 0
period 0
Courant Number mean: 0.1 max: 0.1
Interface Courant Number mean: 0.00046666666666667 max: 0.1
deltaT = 0.0033333333333333
Time = 0.00333333

isoAdvection: After conservative bounding: min(alpha) = 0, max(alpha) = 1 + 0
t = 0.0033333333333333,	 sum(alpha*V) = 0.19453365401668,	 dev = 1.1102230246252e-14%,	 1-max(alpha1) = 0 at cell 0,	 min(alpha1) = 0 at cell 1
ExecutionTime = 0.14 s  ClockTime = 0 s  timeStepTime = 0.01 s

Courant Number mean: 0.1 max: 0.1
Interface Courant Number mean: 0.00046666666666667 max: 0.1
deltaT = 0.0033333333333333
Time = 0.00666667

isoAdvection: After conservative bounding: min(alpha) = 0, max(alpha) = 1 + 0
t = 0.0066666666666667,	 sum(alpha*V) = 0.19453365401668,	 dev = 0%,	 1-max(alpha1) = 0 at cell 0,	 min(alpha1) = 0 at cell 1
ExecutionTime = 0.14 s  ClockTime = 0 s  timeStepTime = 0 s

Courant Number mean: 0.1 max: 0.1
Interface Courant Number mean: 0.00055000000000001 max: 0.1
deltaT = 0.0033333333333333
Time = 0.01

isoAdvection: After conservative bounding: min(alpha) = 0, max(alpha) = 1 + 0
t = 0.01,	 sum(alpha*V) = 0.19453365401668,	 dev = 3.3306690738755e-14%,	 1-max(alpha1) = 0 at cell 0,	 min(alpha1) = 0 at cell 1
ExecutionTime = 0.14 s  ClockTime = 0 s  timeStepTime = 0 s

Courant Number mean: 0.1 max: 0.1
Interface Courant Number mean: 0.00056666666666667 max: 0.1
deltaT = 0.0033333333333333
Time = 0.0133333

isoAdvection: After conservative bounding: min(alpha) = 0, max(alpha) = 1 + 0
t = 0.013333333333333,	 sum(alpha*V) = 0.19453365401668,	 dev = 4.4408920985006e-14%,	 1-max(alpha1) = 0 at cell 0,	 min(alpha1) = 0 at cell 1
ExecutionTime = 0.14 s  ClockTime = 0 s  timeStepTime = 0 s

Courant Number mean: 0.1 max: 0.1
Interface Courant Number mean: 0.00061666666666667 max: 0.1
deltaT = 0.0033333333333333
Time = 0.0166667

isoAdvection: After conservative bounding: min(alpha) = 0, max(alpha) = 1 + 0
t = 0.016666666666667,	 sum(alpha*V) = 0.19453365401668,	 dev = 0%,	 1-max(alpha1) = 0 at cell 0,	 min(alpha1) = 0 at cell 1
ExecutionTime = 0.14 s  ClockTime = 0 s  timeStepTime = 0 s

Courant Number mean: 0.1 max: 0.1
Interface Courant Number mean: 0.00060000000000001 max: 0.1
deltaT = 0.0033333333333333
Time = 0.02

isoAdvection: After conservative bounding: min(alpha) = 0, max(alpha) = 1 + 0
t = 0.02,	 sum(alpha*V) = 0.19453365401668,	 dev = 4.4408920985006e-14%,	 1-max(alpha1) = 0 at cell 0,	 min(alpha1) = 0 at cell 1
ExecutionTime = 0.14 s  ClockTime = 0 s  timeStepTime = 0 s

Courant Number mean: 0.1 max: 0.1
Interface Courant Number mean: 0.00060000000000001 max: 0.1
deltaT = 0.0033333333333333
Time = 0.0233333

isoAdvection: After conservative bounding: min(alpha) = 0, max(alpha) = 1 + 0
t = 0.023333333333333,	 sum(alpha*V) = 0.19453365401668,	 dev = 4.4408920985006e-14%,	 1-max(alpha1) = 0 at cell 0,	 min(alpha1) = 0 at cell 1
ExecutionTime = 0.15 s  ClockTime = 0 s  timeStepTime = 0.01 s

Courant Number mean: 0.1 max: 0.1
Interface Courant Number mean: 0.00056666666666667 max: 0.1
deltaT = 0.0033333333333333
Time = 0.0266667

isoAdvection: After conservative bounding: min(alpha) = 0, max(alpha) = 1 + 0
t = 0.026666666666667,	 sum(alpha*V) = 0.19453365401668,	 dev = 1.1102230246252e-14%,	 1-max(alpha1) = 0 at cell 0,	 min(alpha1) = 0 at cell 1
ExecutionTime = 0.15 s  ClockTime = 0 s  timeStepTime = 0 s

Courant Number mean: 0.1 max: 0.1
Interface Courant Number mean: 0.00056666666666667 max: 0.1
deltaT = 0.0033333333333333
Time = 0.03

isoAdvection: After conservative bounding: min(alpha) = -6.4623485355705e-27, max(alpha) = 1 + 0
t = 0.03,	 sum(alpha*V) = 0.19453365401668,	 dev = 3.3306690738755e-14%,	 1-max(alpha1) = 0 at cell 0,	 min(alpha1) = -6.4623485355705e-27 at cell 1
ExecutionTime = 0.15 s  ClockTime = 0 s  timeStepTime = 0 s

Courant Number mean: 0.1 max: 0.1
Interface Courant Number mean: 0.00056666666666667 max: 0.1
deltaT = 0.0033333333333333
Time = 0.0333333

isoAdvection: After conservative bounding: min(alpha) = -6.4623485355705e-27, max(alpha) = 1 + 0
t = 0.033333333333333,	 sum(alpha*V) = 0.19453365401668,	 dev = 5.5511151231258e-14%,	 1-max(alpha1) = 0 at cell 0,	 min(alpha1) = -6.4623485355705e-27 at cell 1
ExecutionTime = 0.15 s  ClockTime = 0 s  timeStepTime = 0 s

Courant Number mean: 0.1 max: 0.1
Interface Courant Number mean: 0.00056666666666667 max: 0.1
deltaT = 0.0033333333333333
Time = 0.0366667

isoAdvection: After conservative bounding: min(alpha) = -6.4623485355705e-27, max(alpha) = 1 + 0
t = 0.036666666666667,	 sum(alpha*V) = 0.19453365401668,	 dev = 3.3306690738755e-14%,	 1-max(alpha1) = 0 at cell 0,	 min(alpha1) = -6.4623485355705e-27 at cell 1
ExecutionTime = 0.15 s  ClockTime = 0 s  timeStepTime = 0 s

Courant Number mean: 0.1 max: 0.1
Interface Courant Number mean: 0.00056666666666667 max: 0.1
deltaT = 0.0033333333333333
Time = 0.04

isoAdvection: After conservative bounding: min(alpha) = -6.4623485355705e-27, max(alpha) = 1 + 0
t = 0.04,	 sum(alpha*V) = 0.19453365401668,	 dev = 1.1102230246252e-14%,	 1-max(alpha1) = 0 at cell 0,	 min(alpha1) = -6.4623485355705e-27 at cell 1
ExecutionTime = 0.16 s  ClockTime = 0 s  timeStepTime = 0.01 s

Courant Number mean: 0.1 max: 0.1
Interface Courant Number mean: 0.00058333333333334 max: 0.1
deltaT = 0.0033333333333333
Time = 0.0433333

isoAdvection: After conservative bounding: min(alpha) = -6.4623485355705e-27, max(alpha) = 1 + 0
t = 0.043333333333333,	 sum(alpha*V) = 0.19453365401668,	 dev = 4.4408920985006e-14%,	 1-max(alpha1) = 0 at cell 0,	 min(alpha1) = -6.4623485355705e-27 at cell 1
ExecutionTime = 0.16 s  ClockTime = 0 s  timeStepTime = 0 s

Courant Number mean: 0.1 max: 0.1
Interface Courant Number mean: 0.00061666666666668 max: 0.1
deltaT = 0.0033333333333333
Time = 0.0466667

isoAdvection: After conservative bounding: min(alpha) = -6.4623485355705e-27, max(alpha) = 1 + 0
t = 0.046666666666667,	 sum(alpha*V) = 0.19453365401668,	 dev = 6.6613381477509e-14%,	 1-max(alpha1) = 0 at cell 0,	 min(alpha1) = -6.4623485355705e-27 at cell 1
ExecutionTime = 0.16 s  ClockTime = 0 s  timeStepTime = 0 s

Courant Number mean: 0.1 max: 0.1
Interface Courant Number mean: 0.00058333333333334 max: 0.1
deltaT = 0.0033333333333333
Time = 0.05

isoAdvection: After conservative bounding: min(alpha) = -6.4623485355705e-27, max(alpha) = 1 + 0
t = 0.05,	 sum(alpha*V) = 0.19453365401668,	 dev = 5.5511151231258e-14%,	 1-max(alpha1) = 0 at cell 0,	 min(alpha1) = -6.4623485355705e-27 at cell 1
ExecutionTime = 0.16 s  ClockTime = 0 s  timeStepTime = 0 s

Courant Number mean: 0.1 max: 0.1
Interface Courant Number mean: 0.00056666666666667 max: 0.1
deltaT = 0.0033333333333333
Time = 0.0533333

isoAdvection: After conservative bounding: min(alpha) = -6.4623485355705e-27, max(alpha) = 1 + 0
t = 0.053333333333333,	 sum(alpha*V) = 0.19453365401668,	 dev = 6.6613381477509e-14%,	 1-max(alpha1) = 0 at cell 0,	 min(alpha1) = -6.4623485355705e-27 at cell 1
ExecutionTime = 0.16 s  ClockTime = 0 s  timeStepTime = 0 s

Courant Number mean: 0.1 max: 0.1
Interface Courant Number mean: 0.00058333333333334 max: 0.1
deltaT = 0.0033333333333333
Time = 0.0566667

isoAdvection: After conservative bounding: min(alpha) = -6.0315252998658e-27, max(alpha) = 1 + 0
t = 0.056666666666667,	 sum(alpha*V) = 0.19453365401668,	 dev = 1.1102230246252e-14%,	 1-max(alpha1) = 0 at cell 0,	 min(alpha1) = -6.0315252998658e-27 at cell 1
ExecutionTime = 0.16 s  ClockTime = 0 s  timeStepTime = 0 s

Courant Number mean: 0.1 max: 0.1
Interface Courant Number mean: 0.00061666666666668 max: 0.1
deltaT = 0.0033333333333333
Time = 0.06

isoAdvection: After conservative bounding: min(alpha) = -5.6294236132081e-27, max(alpha) = 1 + 0
t = 0.06,	 sum(alpha*V) = 0.19453365401668,	 dev = 5.5511151231258e-14%,	 1-max(alpha1) = 0 at cell 0,	 min(alpha1) = -5.6294236132081e-27 at cell 1
ExecutionTime = 0.17 s  ClockTime = 0 s  timeStepTime = 0.01 s

Courant Number mean: 0.1 max: 0.1
Interface Courant Number mean: 0.00058333333333334 max: 0.1
deltaT = 0.0033333333333333
Time = 0.0633333

isoAdvection: After conservative bounding: min(alpha) = -1.2924697071141e-26, max(alpha) = 1 + 0
t = 0.063333333333333,	 sum(alpha*V) = 0.19453365401668,	 dev = 4.4408920985006e-14%,	 1-max(alpha1) = 0 at cell 0,	 min(alpha1) = -1.2924697071141e-26 at cell 1
ExecutionTime = 0.17 s  ClockTime = 0 s  timeStepTime = 0 s

Courant Number mean: 0.1 max: 0.1
Interface Courant Number mean: 0.00055000000000001 max: 0.1
deltaT = 0.0033333333333333
Time = 0.0666667

isoAdvection: After conservative bounding: min(alpha) = -1.2709285453289e-26, max(alpha) = 1 + 0
t = 0.066666666666667,	 sum(alpha*V) = 0.19453365401668,	 dev = 8.8817841970013e-14%,	 1-max(alpha1) = 0 at cell 0,	 min(alpha1) = -1.2709285453289e-26 at cell 1
ExecutionTime = 0.17 s  ClockTime = 0 s  timeStepTime = 0 s

Courant Number mean: 0.1 max: 0.1
Interface Courant Number mean: 0.00056666666666667 max: 0.1
deltaT = 0.0033333333333333
Time = 0.07

isoAdvection: After conservative bounding: min(alpha) = -1.2501054222698e-26, max(alpha) = 1 + 0
t = 0.07,	 sum(alpha*V) = 0.19453365401668,	 dev = 5.5511151231258e-14%,	 1-max(alpha1) = 0 at cell 0,	 min(alpha1) = -1.2501054222698e-26 at cell 1
ExecutionTime = 0.17 s  ClockTime = 0 s  timeStepTime = 0 s

Courant Number mean: 0.1 max: 0.1
Interface Courant Number mean: 0.00056666666666667 max: 0.1
deltaT = 0.0033333333333333
Time = 0.0733333

isoAdvection: After conservative bounding: min(alpha) = -1.2313646115167e-26, max(alpha) = 1 + 0
t = 0.073333333333333,	 sum(alpha*V) = 0.19453365401668,	 dev = 4.4408920985006e-14%,	 1-max(alpha1) = 0 at cell 0,	 min(alpha1) = -1.2313646115167e-26 at cell 1
ExecutionTime = 0.17 s  ClockTime = 0 s  timeStepTime = 0 s

Courant Number mean: 0.1 max: 0.1
Interface Courant Number mean: 0.00058333333333334 max: 0.1
deltaT = 0.0033333333333333
Time = 0.0766667

isoAdvection: After conservative bounding: min(alpha) = -1.2144978818388e-26, max(alpha) = 1 + 0
t = 0.076666666666667,	 sum(alpha*V) = 0.19453365401668,	 dev = 6.6613381477509e-14%,	 1-max(alpha1) = 0 at cell 0,	 min(alpha1) = -1.2144978818388e-26 at cell 1
ExecutionTime = 0.17 s  ClockTime = 0 s  timeStepTime = 0 s

Courant Number mean: 0.1 max: 0.1
Interface Courant Number mean: 0.00058333333333334 max: 0.1
deltaT = 0.0033333333333333
Time = 0.08

isoAdvection: After conservative bounding: min(alpha) = -1.1993178251288e-26, max(alpha) = 1 + 0
t = 0.08,	 sum(alpha*V) = 0.19453365401668,	 dev = 8.8817841970013e-14%,	 1-max(alpha1) = 0 at cell 0,	 min(alpha1) = -1.1993178251288e-26 at cell 1
ExecutionTime = 0.18 s  ClockTime = 0 s  timeStepTime = 0.01 s

Courant Number mean: 0.1 max: 0.1
Interface Courant Number mean: 0.00058333333333334 max: 0.1
deltaT = 0.0033333333333333
Time = 0.0833333

isoAdvection: After conservative bounding: min(alpha) = -1.0339757656913e-25, max(alpha) = 1 + 0
t = 0.083333333333333,	 sum(alpha*V) = 0.19453365401668,	 dev = 5.5511151231258e-14%,	 1-max(alpha1) = 0 at cell 0,	 min(alpha1) = -1.0339757656913e-25 at cell 1
ExecutionTime = 0.18 s  ClockTime = 0 s  timeStepTime = 0 s

Courant Number mean: 0.1 max: 0.1
Interface Courant Number mean: 0.00061666666666668 max: 0.1
deltaT = 0.0033333333333333
Time = 0.0866667

isoAdvection: After conservative bounding: min(alpha) = -1.0379283262988e-25, max(alpha) = 1 + 0
t = 0.086666666666667,	 sum(alpha*V) = 0.19453365401668,	 dev = 6.6613381477509e-14%,	 1-max(alpha1) = 0 at cell 0,	 min(alpha1) = -1.0379283262988e-25 at cell 1
ExecutionTime = 0.18 s  ClockTime = 0 s  timeStepTime = 0 s

Courant Number mean: 0.1 max: 0.1
Interface Courant Number mean: 0.00060000000000001 max: 0.1
deltaT = 0.0033333333333333
Time = 0.09

isoAdvection: After conservative bounding: min(alpha) = -1.0417081237534e-25, max(alpha) = 1 + 0
t = 0.09,	 sum(alpha*V) = 0.19453365401668,	 dev = 6.6613381477509e-14%,	 1-max(alpha1) = 0 at cell 0,	 min(alpha1) = -1.0417081237534e-25 at cell 1
ExecutionTime = 0.18 s  ClockTime = 0 s  timeStepTime = 0 s

Courant Number mean: 0.1 max: 0.1
Interface Courant Number mean: 0.00058333333333334 max: 0.1
deltaT = 0.0033333333333333
Time = 0.0933333

isoAdvection: After conservative bounding: min(alpha) = -4.512815931131e-13, max(alpha) = 1 + 0
t = 0.093333333333333,	 sum(alpha*V) = 0.19453365401668,	 dev = 4.4408920985006e-14%,	 1-max(alpha1) = 0 at cell 0,	 min(alpha1) = -4.512815931131e-13 at cell 1
ExecutionTime = 0.18 s  ClockTime = 0 s  timeStepTime = 0 s

Courant Number mean: 0.1 max: 0.1
Interface Courant Number mean: 0.00053333333333334 max: 0.1
deltaT = 0.0033333333333333
Time = 0.0966667

isoAdvection: After conservative bounding: min(alpha) = -3.6102369936156e-13, max(alpha) = 1 + 0
t = 0.096666666666667,	 sum(alpha*V) = 0.19453365401668,	 dev = 5.5511151231258e-14%,	 1-max(alpha1) = 0 at cell 0,	 min(alpha1) = -3.6102369936156e-13 at cell 1
ExecutionTime = 0.19 s  ClockTime = 0 s  timeStepTime = 0.01 s

Courant Number mean: 0.1 max: 0.1
Interface Courant Number mean: 0.00050000000000001 max: 0.1
deltaT = 0.0033333333333333
Time = 0.1

isoAdvection: After conservative bounding: min(alpha) = -2.888175693975e-13, max(alpha) = 1 + 0
t = 0.1,	 sum(alpha*V) = 0.19453365401668,	 dev = 6.6613381477509e-14%,	 1-max(alpha1) = 0 at cell 0,	 min(alpha1) = -2.888175693975e-13 at cell 1
ExecutionTime = 0.19 s  ClockTime = 0 s  timeStepTime = 0 s

Courant Number mean: 0.1 max: 0.1
Interface Courant Number mean: 0.00046666666666667 max: 0.1
deltaT = 0.0033333333333333
Time = 0.103333

isoAdvection: After conservative bounding: min(alpha) = -2.599374311475e-13, max(alpha) = 1 + 3.9301895071731e-14
t = 0.10333333333333,	 sum(alpha*V) = 0.19453365401668,	 dev = 8.8817841970013e-14%,	 1-max(alpha1) = -3.9301895071731e-14 at cell 0,	 min(alpha1) = -2.599374311475e-13 at cell 1
ExecutionTime = 0.19 s  ClockTime = 0 s  timeStepTime = 0 s

Courant Number mean: 0.1 max: 0.1
Interface Courant Number mean: 0.00046666666666667 max: 0.1
deltaT = 0.0033333333333333
Time = 0.106667

isoAdvection: After conservative bounding: min(alpha) = -2.1661566665901e-13, max(alpha) = 1 + 3.530509218308e-14
t = 0.10666666666667,	 sum(alpha*V) = 0.19453365401668,	 dev = 8.8817841970013e-14%,	 1-max(alpha1) = -3.530509218308e-14 at cell 0,	 min(alpha1) = -2.1661566665901e-13 at cell 1
ExecutionTime = 0.19 s  ClockTime = 0 s  timeStepTime = 0 s

Courant Number mean: 0.1 max: 0.1
Interface Courant Number mean: 0.00055000000000001 max: 0.1
deltaT = 0.0033333333333333
Time = 0.11

isoAdvection: After conservative bounding: min(alpha) = -1.8051342736766e-13, max(alpha) = 1 + 3.1752378504279e-14
t = 0.11,	 sum(alpha*V) = 0.19453365401668,	 dev = 4.4408920985006e-14%,	 1-max(alpha1) = -3.1752378504279e-14 at cell 0,	 min(alpha1) = -1.8051342736766e-13 at cell 1
ExecutionTime = 0.19 s  ClockTime = 0 s  timeStepTime = 0 s

Courant Number mean: 0.1 max: 0.1
Interface Courant Number mean: 0.00056666666666667 max: 0.1
deltaT = 0.0033333333333333
Time = 0.113333

isoAdvection: After conservative bounding: min(alpha) = -1.6246179008301e-13, max(alpha) = 1 + 2.8643754035329e-14
t = 0.11333333333333,	 sum(alpha*V) = 0.19453365401668,	 dev = 8.8817841970013e-14%,	 1-max(alpha1) = -2.8643754035329e-14 at cell 0,	 min(alpha1) = -1.6246179008301e-13 at cell 1
ExecutionTime = 0.19 s  ClockTime = 0 s  timeStepTime = 0 s

Courant Number mean: 0.1 max: 0.1
Interface Courant Number mean: 0.00061666666666668 max: 0.1
deltaT = 0.0033333333333333
Time = 0.116667

isoAdvection: After conservative bounding: min(alpha) = -1.4621681646072e-13, max(alpha) = 1 + 2.5757174171304e-14
t = 0.11666666666667,	 sum(alpha*V) = 0.19453365401668,	 dev = 1.1102230246252e-13%,	 1-max(alpha1) = -2.5757174171304e-14 at cell 0,	 min(alpha1) = -1.4621681646072e-13 at cell 1
ExecutionTime = 0.2 s  ClockTime = 0 s  timeStepTime = 0.01 s

Courant Number mean: 0.1 max: 0.1
Interface Courant Number mean: 0.00061666666666668 max: 0.1
deltaT = 0.0033333333333333
Time = 0.12

isoAdvection: After conservative bounding: min(alpha) = -1.3159514961856e-13, max(alpha) = 1 + 2.3092638912203e-14
t = 0.12,	 sum(alpha*V) = 0.19453365401668,	 dev = 4.4408920985006e-14%,	 1-max(alpha1) = -2.3092638912203e-14 at cell 0,	 min(alpha1) = -1.3159514961856e-13 at cell 1
ExecutionTime = 0.2 s  ClockTime = 0 s  timeStepTime = 0 s

Courant Number mean: 0.1 max: 0.1
Interface Courant Number mean: 0.00060000000000001 max: 0.1
deltaT = 0.0033333333333333
Time = 0.123333

isoAdvection: After conservative bounding: min(alpha) = -1.1843490832501e-13, max(alpha) = 1 + 2.0872192862953e-14
t = 0.12333333333333,	 sum(alpha*V) = 0.19453365401668,	 dev = 5.5511151231258e-14%,	 1-max(alpha1) = -2.0872192862953e-14 at cell 0,	 min(alpha1) = -1.1843490832501e-13 at cell 1
ExecutionTime = 0.2 s  ClockTime = 0 s  timeStepTime = 0 s

Courant Number mean: 0.1 max: 0.1
Interface Courant Number mean: 0.00056666666666667 max: 0.1
deltaT = 0.0033333333333333
Time = 0.126667

isoAdvection: After conservative bounding: min(alpha) = -1.0659055454576e-13, max(alpha) = 1 + 1.8651746813703e-14
t = 0.12666666666667,	 sum(alpha*V) = 0.19453365401668,	 dev = 6.6613381477509e-14%,	 1-max(alpha1) = -1.8651746813703e-14 at cell 0,	 min(alpha1) = -1.0659055454576e-13 at cell 1
ExecutionTime = 0.2 s  ClockTime = 0 s  timeStepTime = 0 s

Courant Number mean: 0.1 max: 0.1
Interface Courant Number mean: 0.00056666666666667 max: 0.1
deltaT = 0.0033333333333333
Time = 0.13

isoAdvection: After conservative bounding: min(alpha) = -9.5931803897239e-14, max(alpha) = 1 + 1.6653345369377e-14
t = 0.13,	 sum(alpha*V) = 0.19453365401668,	 dev = 6.6613381477509e-14%,	 1-max(alpha1) = -1.6653345369377e-14 at cell 0,	 min(alpha1) = -9.5931803897239e-14 at cell 1
ExecutionTime = 0.2 s  ClockTime = 0 s  timeStepTime = 0 s

Courant Number mean: 0.1 max: 0.1
Interface Courant Number mean: 0.00056666666666667 max: 0.1
deltaT = 0.0033333333333333
Time = 0.133333

isoAdvection: After conservative bounding: min(alpha) = -8.6338907993166e-14, max(alpha) = 1 + 1.4876988529977e-14
t = 0.13333333333333,	 sum(alpha*V) = 0.19453365401668,	 dev = 5.5511151231258e-14%,	 1-max(alpha1) = -1.4876988529977e-14 at cell 0,	 min(alpha1) = -8.6338907993166e-14 at cell 1
ExecutionTime = 0.2 s  ClockTime = 0 s  timeStepTime = 0 s

Courant Number mean: 0.1 max: 0.1
Interface Courant Number mean: 0.00056666666666667 max: 0.1
deltaT = 0.0033333333333333
Time = 0.136667

isoAdvection: After conservative bounding: min(alpha) = -7.862330643719e-14, max(alpha) = 1 + 1.3544720900427e-14
t = 0.13666666666667,	 sum(alpha*V) = 0.19453365401668,	 dev = 6.6613381477509e-14%,	 1-max(alpha1) = -1.3544720900427e-14 at cell 0,	 min(alpha1) = -7.862330643719e-14 at cell 1
ExecutionTime = 0.21 s  ClockTime = 0 s  timeStepTime = 0.01 s

Courant Number mean: 0.1 max: 0.1
Interface Courant Number mean: 0.00056666666666667 max: 0.1
deltaT = 0.0033333333333333
Time = 0.14

isoAdvection: After conservative bounding: min(alpha) = -7.5941941510081e-14, max(alpha) = 1 + 1.2212453270877e-14
t = 0.14,	 sum(alpha*V) = 0.19453365401668,	 dev = 6.6613381477509e-14%,	 1-max(alpha1) = -1.2212453270877e-14 at cell 0,	 min(alpha1) = -7.5941941510081e-14 at cell 1
ExecutionTime = 0.21 s  ClockTime = 0 s  timeStepTime = 0 s

Courant Number mean: 0.1 max: 0.1
Interface Courant Number mean: 0.00058333333333334 max: 0.1
deltaT = 0.0033333333333333
Time = 0.143333

isoAdvection: After conservative bounding: min(alpha) = -7.3010127221992e-14, max(alpha) = 1 + 1.0880185641327e-14
t = 0.14333333333333,	 sum(alpha*V) = 0.19453365401668,	 dev = 5.5511151231258e-14%,	 1-max(alpha1) = -1.0880185641327e-14 at cell 0,	 min(alpha1) = -7.3010127221992e-14 at cell 1
ExecutionTime = 0.21 s  ClockTime = 0 s  timeStepTime = 0 s

Courant Number mean: 0.1 max: 0.1
Interface Courant Number mean: 0.00061666666666667 max: 0.1
deltaT = 0.0033333333333333
Time = 0.146667

isoAdvection: After conservative bounding: min(alpha) = -6.9905601762686e-14, max(alpha) = 1 + 9.7699626167014e-15
t = 0.14666666666667,	 sum(alpha*V) = 0.19453365401668,	 dev = 5.5511151231258e-14%,	 1-max(alpha1) = -9.7699626167014e-15 at cell 0,	 min(alpha1) = -6.9905601762686e-14 at cell 1
ExecutionTime = 0.21 s  ClockTime = 0 s  timeStepTime = 0 s

Courant Number mean: 0.1 max: 0.1
Interface Courant Number mean: 0.00056666666666667 max: 0.1
deltaT = 0.0033333333333333
Time = 0.15

isoAdvection: After conservative bounding: min(alpha) = -6.6692063501433e-14, max(alpha) = 1 + 8.8817841970013e-15
t = 0.15,	 sum(alpha*V) = 0.19453365401668,	 dev = 4.4408920985006e-14%,	 1-max(alpha1) = -8.8817841970013e-15 at cell 0,	 min(alpha1) = -6.6692063501433e-14 at cell 1
ExecutionTime = 0.21 s  ClockTime = 0 s  timeStepTime = 0 s

Courant Number mean: 0.1 max: 0.1
Interface Courant Number mean: 0.00056666666666667 max: 0.1
deltaT = 0.0033333333333333
Time = 0.153333

isoAdvection: After conservative bounding: min(alpha) = -6.3421510852576e-14, max(alpha) = 1 + 7.9936057773011e-15
t = 0.15333333333333,	 sum(alpha*V) = 0.19453365401668,	 dev = 4.4408920985006e-14%,	 1-max(alpha1) = -7.9936057773011e-15 at cell 0,	 min(alpha1) = -6.3421510852576e-14 at cell 1
ExecutionTime = 0.22 s  ClockTime = 0 s  timeStepTime = 0.01 s

Courant Number mean: 0.1 max: 0.1
Interface Courant Number mean: 0.00058333333333334 max: 0.1
deltaT = 0.0033333333333333
Time = 0.156667

isoAdvection: After conservative bounding: min(alpha) = -6.0138286531471e-14, max(alpha) = 1 + 7.105427357601e-15
t = 0.15666666666667,	 sum(alpha*V) = 0.19453365401668,	 dev = 6.6613381477509e-14%,	 1-max(alpha1) = -7.105427357601e-15 at cell 0,	 min(alpha1) = -6.0138286531471e-14 at cell 1
ExecutionTime = 0.22 s  ClockTime = 0 s  timeStepTime = 0 s

Courant Number mean: 0.1 max: 0.1
Interface Courant Number mean: 0.00060000000000001 max: 0.1
deltaT = 0.0033333333333333
Time = 0.16

isoAdvection: After conservative bounding: min(alpha) = -5.6877685747609e-14, max(alpha) = 1 + 6.2172489379009e-15
t = 0.16,	 sum(alpha*V) = 0.19453365401668,	 dev = 4.4408920985006e-14%,	 1-max(alpha1) = -6.2172489379009e-15 at cell 0,	 min(alpha1) = -5.6877685747609e-14 at cell 1
ExecutionTime = 0.22 s  ClockTime = 0 s  timeStepTime = 0 s

Courant Number mean: 0.1 max: 0.1
Interface Courant Number mean: 0.00058333333333334 max: 0.1
deltaT = 0.0033333333333333
Time = 0.163333

isoAdvection: After conservative bounding: min(alpha) = -5.3667864340104e-14, max(alpha) = 1 + 5.7731597280508e-15
t = 0.16333333333333,	 sum(alpha*V) = 0.19453365401668,	 dev = 4.4408920985006e-14%,	 1-max(alpha1) = -5.7731597280508e-15 at cell 0,	 min(alpha1) = -5.3667864340104e-14 at cell 1
ExecutionTime = 0.22 s  ClockTime = 0 s  timeStepTime = 0 s

Courant Number mean: 0.1 max: 0.1
Interface Courant Number mean: 0.00055000000000001 max: 0.1
deltaT = 0.0033333333333333
Time = 0.166667

isoAdvection: After conservative bounding: min(alpha) = -5.0531116980198e-14, max(alpha) = 1 + 5.5511151231258e-15
t = 0.16666666666667,	 sum(alpha*V) = 0.19453365401668,	 dev = 3.3306690738755e-14%,	 1-max(alpha1) = -5.5511151231258e-15 at cell 0,	 min(alpha1) = -5.0531116980198e-14 at cell 1
ExecutionTime = 0.22 s  ClockTime = 0 s  timeStepTime = 0 s

Courant Number mean: 0.1 max: 0.1
Interface Courant Number mean: 0.00056666666666667 max: 0.1
deltaT = 0.0033333333333333
Time = 0.17

isoAdvection: After conservative bounding: min(alpha) = -4.7484920753086e-14, max(alpha) = 1 + 5.5511151231258e-15
t = 0.17,	 sum(alpha*V) = 0.19453365401668,	 dev = 5.5511151231258e-14%,	 1-max(alpha1) = -5.5511151231258e-15 at cell 0,	 min(alpha1) = -4.7484920753086e-14 at cell 1
ExecutionTime = 0.22 s  ClockTime = 0 s  timeStepTime = 0 s

Courant Number mean: 0.1 max: 0.1
Interface Courant Number mean: 0.00056666666666667 max: 0.1
deltaT = 0.0033333333333333
Time = 0.173333

isoAdvection: After conservative bounding: min(alpha) = -4.4542705106018e-14, max(alpha) = 1 + 5.3290705182008e-15
t = 0.17333333333333,	 sum(alpha*V) = 0.19453365401668,	 dev = 3.3306690738755e-14%,	 1-max(alpha1) = -5.3290705182008e-15 at cell 0,	 min(alpha1) = -4.4542705106018e-14 at cell 1
ExecutionTime = 0.23 s  ClockTime = 0 s  timeStepTime = 0.01 s

Courant Number mean: 0.1 max: 0.1
Interface Courant Number mean: 0.00058333333333334 max: 0.1
deltaT = 0.0033333333333333
Time = 0.176667

isoAdvection: After conservative bounding: min(alpha) = -4.1714073341116e-14, max(alpha) = 1 + 5.1070259132757e-15
t = 0.17666666666667,	 sum(alpha*V) = 0.19453365401668,	 dev = 3.3306690738755e-14%,	 1-max(alpha1) = -5.1070259132757e-15 at cell 0,	 min(alpha1) = -4.1714073341116e-14 at cell 1
ExecutionTime = 0.23 s  ClockTime = 0 s  timeStepTime = 0 s

Courant Number mean: 0.1 max: 0.1
Interface Courant Number mean: 0.00058333333333334 max: 0.1
deltaT = 0.0033333333333333
Time = 0.18

isoAdvection: After conservative bounding: min(alpha) = -3.9005740867659e-14, max(alpha) = 1 + 4.8849813083507e-15
t = 0.18,	 sum(alpha*V) = 0.19453365401668,	 dev = 8.8817841970013e-14%,	 1-max(alpha1) = -4.8849813083507e-15 at cell 0,	 min(alpha1) = -3.9005740867659e-14 at cell 1
ExecutionTime = 0.23 s  ClockTime = 0 s  timeStepTime = 0 s

Courant Number mean: 0.1 max: 0.1
Interface Courant Number mean: 0.00058333333333334 max: 0.1
deltaT = 0.0033333333333333
Time = 0.183333

isoAdvection: After conservative bounding: min(alpha) = -3.6421934155482e-14, max(alpha) = 1 + 4.6629367034257e-15
t = 0.18333333333333,	 sum(alpha*V) = 0.19453365401668,	 dev = 3.3306690738755e-14%,	 1-max(alpha1) = -4.6629367034257e-15 at cell 0,	 min(alpha1) = -3.6421934155482e-14 at cell 1
ExecutionTime = 0.23 s  ClockTime = 0 s  timeStepTime = 0 s

Courant Number mean: 0.1 max: 0.1
Interface Courant Number mean: 0.00060000000000001 max: 0.1
deltaT = 0.0033333333333333
Time = 0.186667

isoAdvection: After conservative bounding: min(alpha) = -3.4043829249586e-14, max(alpha) = 1 + 4.4408920985006e-15
t = 0.18666666666667,	 sum(alpha*V) = 0.19453365401668,	 dev = 8.8817841970013e-14%,	 1-max(alpha1) = -4.4408920985006e-15 at cell 0,	 min(alpha1) = -3.4043829249586e-14 at cell 1
ExecutionTime = 0.23 s  ClockTime = 0 s  timeStepTime = 0 s

Courant Number mean: 0.1 max: 0.1
Interface Courant Number mean: 0.00060000000000001 max: 0.1
deltaT = 0.0033333333333333
Time = 0.19

isoAdvection: After conservative bounding: min(alpha) = -3.2903764450883e-14, max(alpha) = 1 + 4.2188474935756e-15
t = 0.19,	 sum(alpha*V) = 0.19453365401668,	 dev = 6.6613381477509e-14%,	 1-max(alpha1) = -4.2188474935756e-15 at cell 0,	 min(alpha1) = -3.2903764450883e-14 at cell 1
ExecutionTime = 0.23 s  ClockTime = 0 s  timeStepTime = 0 s

Courant Number mean: 0.1 max: 0.1
Interface Courant Number mean: 0.00058333333333334 max: 0.1
deltaT = 0.0033333333333333
Time = 0.193333

isoAdvection: After conservative bounding: min(alpha) = -3.1722383326647e-14, max(alpha) = 1 + 3.9968028886506e-15
t = 0.19333333333333,	 sum(alpha*V) = 0.19453365401668,	 dev = 9.9920072216264e-14%,	 1-max(alpha1) = -3.9968028886506e-15 at cell 0,	 min(alpha1) = -3.1722383326647e-14 at cell 1
ExecutionTime = 0.24 s  ClockTime = 0 s  timeStepTime = 0.01 s

Courant Number mean: 0.1 max: 0.1
Interface Courant Number mean: 0.00050000000000001 max: 0.1
deltaT = 0.0033333333333333
Time = 0.196667

isoAdvection: After conservative bounding: min(alpha) = -3.0512235677153e-14, max(alpha) = 1 + 3.7747582837255e-15
t = 0.19666666666667,	 sum(alpha*V) = 0.19453365401668,	 dev = 8.8817841970013e-14%,	 1-max(alpha1) = -3.7747582837255e-15 at cell 0,	 min(alpha1) = -3.0512235677153e-14 at cell 1
ExecutionTime = 0.24 s  ClockTime = 0 s  timeStepTime = 0 s

Courant Number mean: 0.1 max: 0.1
Interface Courant Number mean: 0.00050000000000001 max: 0.1
deltaT = 0.0033333333333333
Time = 0.2

isoAdvection: After conservative bounding: min(alpha) = -2.9284489129257e-14, max(alpha) = 1 + 3.5527136788005e-15
t = 0.2,	 sum(alpha*V) = 0.19453365401668,	 dev = 1.1102230246252e-13%,	 1-max(alpha1) = -3.5527136788005e-15 at cell 250,	 min(alpha1) = -2.9284489129257e-14 at cell 1
ExecutionTime = 0.24 s  ClockTime = 0 s  timeStepTime = 0 s

Courant Number mean: 0.1 max: 0.1
Interface Courant Number mean: 0.00046666666666667 max: 0.1
deltaT = 0.0033333333333333
Time = 0.203333

isoAdvection: After conservative bounding: min(alpha) = -2.8049005398636e-14, max(alpha) = 1 + 3.3306690738755e-15
t = 0.20333333333333,	 sum(alpha*V) = 0.19453365401668,	 dev = 6.6613381477509e-14%,	 1-max(alpha1) = -3.3306690738755e-15 at cell 250,	 min(alpha1) = -2.8049005398636e-14 at cell 1
ExecutionTime = 0.24 s  ClockTime = 0 s  timeStepTime = 0 s

Courant Number mean: 0.1 max: 0.1
Interface Courant Number mean: 0.00046666666666667 max: 0.1
deltaT = 0.0033333333333333
Time = 0.206667

isoAdvection: After conservative bounding: min(alpha) = -2.6814425800869e-14, max(alpha) = 1 + 3.3306690738755e-15
t = 0.20666666666667,	 sum(alpha*V) = 0.19453365401668,	 dev = 9.9920072216264e-14%,	 1-max(alpha1) = -3.3306690738755e-15 at cell 250,	 min(alpha1) = -2.6814425800869e-14 at cell 1
ExecutionTime = 0.24 s  ClockTime = 0 s  timeStepTime = 0 s

Courant Number mean: 0.1 max: 0.1
Interface Courant Number mean: 0.00053333333333334 max: 0.1
deltaT = 0.0033333333333333
Time = 0.21

isoAdvection: After conservative bounding: min(alpha) = -2.5588259118887e-14, max(alpha) = 1 + 3.3306690738755e-15
t = 0.21,	 sum(alpha*V) = 0.19453365401668,	 dev = 6.6613381477509e-14%,	 1-max(alpha1) = -3.3306690738755e-15 at cell 250,	 min(alpha1) = -2.5588259118887e-14 at cell 1
ExecutionTime = 0.24 s  ClockTime = 0 s  timeStepTime = 0 s

Courant Number mean: 0.1 max: 0.1
Interface Courant Number mean: 0.00056666666666667 max: 0.1
deltaT = 0.0033333333333333
Time = 0.213333

isoAdvection: After conservative bounding: min(alpha) = -2.437696986049e-14, max(alpha) = 1 + 3.3306690738755e-15
t = 0.21333333333333,	 sum(alpha*V) = 0.19453365401668,	 dev = 8.8817841970013e-14%,	 1-max(alpha1) = -3.3306690738755e-15 at cell 250,	 min(alpha1) = -2.437696986049e-14 at cell 1
ExecutionTime = 0.25 s  ClockTime = 0 s  timeStepTime = 0.01 s

Courant Number mean: 0.1 max: 0.1
Interface Courant Number mean: 0.00061666666666668 max: 0.1
deltaT = 0.0033333333333333
Time = 0.216667

isoAdvection: After conservative bounding: min(alpha) = -2.3186065373262e-14, max(alpha) = 1 + 3.3306690738755e-15
t = 0.21666666666667,	 sum(alpha*V) = 0.19453365401668,	 dev = 1.1102230246252e-13%,	 1-max(alpha1) = -3.3306690738755e-15 at cell 250,	 min(alpha1) = -2.3186065373262e-14 at cell 1
ExecutionTime = 0.25 s  ClockTime = 0 s  timeStepTime = 0 s

Courant Number mean: 0.1 max: 0.1
Interface Courant Number mean: 0.00061666666666668 max: 0.1
deltaT = 0.0033333333333333
Time = 0.22

isoAdvection: After conservative bounding: min(alpha) = -2.2020180644483e-14, max(alpha) = 1 + 3.3306690738755e-15
t = 0.22,	 sum(alpha*V) = 0.19453365401668,	 dev = 9.9920072216264e-14%,	 1-max(alpha1) = -3.3306690738755e-15 at cell 250,	 min(alpha1) = -2.2020180644483e-14 at cell 1
ExecutionTime = 0.25 s  ClockTime = 0 s  timeStepTime = 0 s

Courant Number mean: 0.1 max: 0.1
Interface Courant Number mean: 0.00060000000000001 max: 0.1
deltaT = 0.0033333333333333
Time = 0.223333

isoAdvection: After conservative bounding: min(alpha) = -2.0883159911377e-14, max(alpha) = 1 + 3.3306690738755e-15
t = 0.22333333333333,	 sum(alpha*V) = 0.19453365401668,	 dev = 6.6613381477509e-14%,	 1-max(alpha1) = -3.3306690738755e-15 at cell 250,	 min(alpha1) = -2.0883159911377e-14 at cell 1
ExecutionTime = 0.25 s  ClockTime = 0 s  timeStepTime = 0 s

Courant Number mean: 0.1 max: 0.1
Interface Courant Number mean: 0.00056666666666667 max: 0.1
deltaT = 0.0033333333333333
Time = 0.226667

isoAdvection: After conservative bounding: min(alpha) = -1.9778134451731e-14, max(alpha) = 1 + 3.3306690738755e-15
t = 0.22666666666667,	 sum(alpha*V) = 0.19453365401668,	 dev = 6.6613381477509e-14%,	 1-max(alpha1) = -3.3306690738755e-15 at cell 250,	 min(alpha1) = -1.9778134451731e-14 at cell 1
ExecutionTime = 0.25 s  ClockTime = 0 s  timeStepTime = 0 s

Courant Number mean: 0.1 max: 0.1
Interface Courant Number mean: 0.00056666666666667 max: 0.1
deltaT = 0.0033333333333333
Time = 0.23

isoAdvection: After conservative bounding: min(alpha) = -1.8707596124856e-14, max(alpha) = 1 + 3.3306690738755e-15
t = 0.23,	 sum(alpha*V) = 0.19453365401668,	 dev = 9.9920072216264e-14%,	 1-max(alpha1) = -3.3306690738755e-15 at cell 250,	 min(alpha1) = -1.8707596124856e-14 at cell 1
ExecutionTime = 0.25 s  ClockTime = 0 s  timeStepTime = 0 s

Courant Number mean: 0.1 max: 0.1
Interface Courant Number mean: 0.00055000000000001 max: 0.1
deltaT = 0.0033333333333333
Time = 0.233333

isoAdvection: After conservative bounding: min(alpha) = -1.7673466394798e-14, max(alpha) = 1 + 3.3306690738755e-15
t = 0.23333333333333,	 sum(alpha*V) = 0.19453365401668,	 dev = 9.9920072216264e-14%,	 1-max(alpha1) = -3.3306690738755e-15 at cell 250,	 min(alpha1) = -1.7673466394798e-14 at cell 1
ExecutionTime = 0.26 s  ClockTime = 0 s  timeStepTime = 0.01 s

Courant Number mean: 0.1 max: 0.1
Interface Courant Number mean: 0.00056666666666667 max: 0.1
deltaT = 0.0033333333333333
Time = 0.236667

isoAdvection: After conservative bounding: min(alpha) = -1.6859183048769e-14, max(alpha) = 1 + 3.3306690738755e-15
t = 0.23666666666667,	 sum(alpha*V) = 0.19453365401668,	 dev = 9.9920072216264e-14%,	 1-max(alpha1) = -3.3306690738755e-15 at cell 250,	 min(alpha1) = -1.6859183048769e-14 at cell 1
ExecutionTime = 0.26 s  ClockTime = 0 s  timeStepTime = 0 s

Courant Number mean: 0.1 max: 0.1
Interface Courant Number mean: 0.00056666666666667 max: 0.1
deltaT = 0.0033333333333333
Time = 0.24

isoAdvection: After conservative bounding: min(alpha) = -1.6285075457083e-14, max(alpha) = 1 + 3.3306690738755e-15
t = 0.24,	 sum(alpha*V) = 0.19453365401668,	 dev = 8.8817841970013e-14%,	 1-max(alpha1) = -3.3306690738755e-15 at cell 250,	 min(alpha1) = -1.6285075457083e-14 at cell 1
ExecutionTime = 0.26 s  ClockTime = 0 s  timeStepTime = 0 s

Courant Number mean: 0.1 max: 0.1
Interface Courant Number mean: 0.00058333333333334 max: 0.1
deltaT = 0.0033333333333333
Time = 0.243333

isoAdvection: After conservative bounding: min(alpha) = -1.5704544452702e-14, max(alpha) = 1 + 3.3306690738755e-15
t = 0.24333333333333,	 sum(alpha*V) = 0.19453365401668,	 dev = 5.5511151231258e-14%,	 1-max(alpha1) = -3.3306690738755e-15 at cell 250,	 min(alpha1) = -1.5704544452702e-14 at cell 1
ExecutionTime = 0.26 s  ClockTime = 0 s  timeStepTime = 0 s

Courant Number mean: 0.1 max: 0.1
Interface Courant Number mean: 0.00061666666666668 max: 0.1
deltaT = 0.0033333333333333
Time = 0.246667

isoAdvection: After conservative bounding: min(alpha) = -1.5120857102747e-14, max(alpha) = 1 + 3.3306690738755e-15
t = 0.24666666666667,	 sum(alpha*V) = 0.19453365401668,	 dev = 9.9920072216264e-14%,	 1-max(alpha1) = -3.3306690738755e-15 at cell 250,	 min(alpha1) = -1.5120857102747e-14 at cell 1
ExecutionTime = 0.26 s  ClockTime = 0 s  timeStepTime = 0 s

Courant Number mean: 0.1 max: 0.1
Interface Courant Number mean: 0.00056666666666667 max: 0.1
deltaT = 0.0033333333333333
Time = 0.25

isoAdvection: After conservative bounding: min(alpha) = -1.4536969564315e-14, max(alpha) = 1 + 3.3306690738755e-15
t = 0.25,	 sum(alpha*V) = 0.19453365401668,	 dev = 1.1102230246252e-13%,	 1-max(alpha1) = -3.3306690738755e-15 at cell 250,	 min(alpha1) = -1.4536969564315e-14 at cell 1
ExecutionTime = 0.27 s  ClockTime = 0 s  timeStepTime = 0.01 s

Courant Number mean: 0.1 max: 0.1
Interface Courant Number mean: 0.00058333333333334 max: 0.1
deltaT = 0.0033333333333333
Time = 0.253333

isoAdvection: After conservative bounding: min(alpha) = -1.3955538528871e-14, max(alpha) = 1 + 3.3306690738755e-15
t = 0.25333333333333,	 sum(alpha*V) = 0.19453365401668,	 dev = 9.9920072216264e-14%,	 1-max(alpha1) = -3.3306690738755e-15 at cell 250,	 min(alpha1) = -1.3955538528871e-14 at cell 1
ExecutionTime = 0.27 s  ClockTime = 0 s  timeStepTime = 0 s

Courant Number mean: 0.1 max: 0.1
Interface Courant Number mean: 0.00058333333333334 max: 0.1
deltaT = 0.0033333333333333
Time = 0.256667

isoAdvection: After conservative bounding: min(alpha) = -1.3378934317557e-14, max(alpha) = 1 + 3.3306690738755e-15
t = 0.25666666666667,	 sum(alpha*V) = 0.19453365401668,	 dev = 8.8817841970013e-14%,	 1-max(alpha1) = -3.3306690738755e-15 at cell 250,	 min(alpha1) = -1.3378934317557e-14 at cell 1
ExecutionTime = 0.27 s  ClockTime = 0 s  timeStepTime = 0 s

Courant Number mean: 0.1 max: 0.1
Interface Courant Number mean: 0.00060000000000001 max: 0.1
deltaT = 0.0033333333333333
Time = 0.26

isoAdvection: After conservative bounding: min(alpha) = -1.2809255197321e-14, max(alpha) = 1 + 3.3306690738755e-15
t = 0.26,	 sum(alpha*V) = 0.19453365401668,	 dev = 6.6613381477509e-14%,	 1-max(alpha1) = -3.3306690738755e-15 at cell 250,	 min(alpha1) = -1.2809255197321e-14 at cell 1
ExecutionTime = 0.27 s  ClockTime = 0 s  timeStepTime = 0 s

Courant Number mean: 0.1 max: 0.1
Interface Courant Number mean: 0.00058333333333334 max: 0.1
deltaT = 0.0033333333333333
Time = 0.263333

isoAdvection: After conservative bounding: min(alpha) = -1.2248342546071e-14, max(alpha) = 1 + 3.3306690738755e-15
t = 0.26333333333333,	 sum(alpha*V) = 0.19453365401668,	 dev = 5.5511151231258e-14%,	 1-max(alpha1) = -3.3306690738755e-15 at cell 250,	 min(alpha1) = -1.2248342546071e-14 at cell 1
ExecutionTime = 0.27 s  ClockTime = 0 s  timeStepTime = 0 s

Courant Number mean: 0.1 max: 0.1
Interface Courant Number mean: 0.00055000000000001 max: 0.1
deltaT = 0.0033333333333333
Time = 0.266667

isoAdvection: After conservative bounding: min(alpha) = -1.1697796548079e-14, max(alpha) = 1 + 3.3306690738755e-15
t = 0.26666666666667,	 sum(alpha*V) = 0.19453365401668,	 dev = 9.9920072216264e-14%,	 1-max(alpha1) = -3.3306690738755e-15 at cell 300,	 min(alpha1) = -1.1697796548079e-14 at cell 1
ExecutionTime = 0.27 s  ClockTime = 0 s  timeStepTime = 0 s

Courant Number mean: 0.1 max: 0.1
Interface Courant Number mean: 0.00056666666666667 max: 0.1
deltaT = 0.0033333333333333
Time = 0.27

isoAdvection: After conservative bounding: min(alpha) = -1.1158992148818e-14, max(alpha) = 1 + 3.3306690738755e-15
t = 0.27,	 sum(alpha*V) = 0.19453365401668,	 dev = 8.8817841970013e-14%,	 1-max(alpha1) = -3.3306690738755e-15 at cell 300,	 min(alpha1) = -1.1158992148818e-14 at cell 1
ExecutionTime = 0.28 s  ClockTime = 0 s  timeStepTime = 0.01 s

Courant Number mean: 0.1 max: 0.1
Interface Courant Number mean: 0.00056666666666667 max: 0.1
deltaT = 0.0033333333333333
Time = 0.273333

isoAdvection: After conservative bounding: min(alpha) = -1.0633095041462e-14, max(alpha) = 1 + 3.3306690738755e-15
t = 0.27333333333333,	 sum(alpha*V) = 0.19453365401668,	 dev = 5.5511151231258e-14%,	 1-max(alpha1) = -3.3306690738755e-15 at cell 300,	 min(alpha1) = -1.0633095041462e-14 at cell 250
ExecutionTime = 0.28 s  ClockTime = 0 s  timeStepTime = 0 s

Courant Number mean: 0.1 max: 0.1
Interface Courant Number mean: 0.00058333333333334 max: 0.1
deltaT = 0.0033333333333333
Time = 0.276667

isoAdvection: After conservative bounding: min(alpha) = -1.0121077495728e-14, max(alpha) = 1 + 3.3306690738755e-15
t = 0.27666666666667,	 sum(alpha*V) = 0.19453365401668,	 dev = 5.5511151231258e-14%,	 1-max(alpha1) = -3.3306690738755e-15 at cell 350,	 min(alpha1) = -1.0121077495728e-14 at cell 250
ExecutionTime = 0.28 s  ClockTime = 0 s  timeStepTime = 0 s

Courant Number mean: 0.1 max: 0.1
Interface Courant Number mean: 0.00058333333333334 max: 0.1
deltaT = 0.0033333333333333
Time = 0.28

isoAdvection: After conservative bounding: min(alpha) = -9.9673496326454e-15, max(alpha) = 1 + 2.6068036618199e-13
t = 0.28,	 sum(alpha*V) = 0.19453365401668,	 dev = 8.8817841970013e-14%,	 1-max(alpha1) = -2.6068036618199e-13 at cell 400,	 min(alpha1) = -9.9673496326454e-15 at cell 250
ExecutionTime = 0.28 s  ClockTime = 0 s  timeStepTime = 0 s

Courant Number mean: 0.1 max: 0.1
Interface Courant Number mean: 0.00060000000000001 max: 0.1
deltaT = 0.0033333333333333
Time = 0.283333

isoAdvection: After conservative bounding: min(alpha) = -9.8421744052575e-15, max(alpha) = 1 + 2.1738166822161e-13
t = 0.28333333333333,	 sum(alpha*V) = 0.19453365401668,	 dev = 4.4408920985006e-14%,	 1-max(alpha1) = -2.1738166822161e-13 at cell 400,	 min(alpha1) = -9.8421744052575e-15 at cell 250
ExecutionTime = 0.28 s  ClockTime = 0 s  timeStepTime = 0 s

Courant Number mean: 0.1 max: 0.1
Interface Courant Number mean: 0.00060000000000001 max: 0.1
deltaT = 0.0033333333333333
Time = 0.286667

isoAdvection: After conservative bounding: min(alpha) = -9.6942152217938e-15, max(alpha) = 1 + 1.9562129693895e-13
t = 0.28666666666667,	 sum(alpha*V) = 0.19453365401668,	 dev = 8.8817841970013e-14%,	 1-max(alpha1) = -1.9562129693895e-13 at cell 450,	 min(alpha1) = -9.6942152217938e-15 at cell 250
ExecutionTime = 0.28 s  ClockTime = 0 s  timeStepTime = 0 s

Courant Number mean: 0.1 max: 0.1
Interface Courant Number mean: 0.00058333333333334 max: 0.1
deltaT = 0.0033333333333333
Time = 0.29

isoAdvection: After conservative bounding: min(alpha) = -9.5260061820625e-15, max(alpha) = 1 + 1.6298074001497e-13
t = 0.29,	 sum(alpha*V) = 0.19453365401668,	 dev = 5.5511151231258e-14%,	 1-max(alpha1) = -1.6298074001497e-13 at cell 500,	 min(alpha1) = -9.5260061820625e-15 at cell 250
ExecutionTime = 0.29 s  ClockTime = 0 s  timeStepTime = 0.01 s

Courant Number mean: 0.1 max: 0.1
Interface Courant Number mean: 0.00058333333333334 max: 0.1
deltaT = 0.0033333333333333
Time = 0.293333

isoAdvection: After conservative bounding: min(alpha) = -9.3399718273598e-15, max(alpha) = 1 + 1.4654943925052e-13
t = 0.29333333333333,	 sum(alpha*V) = 0.19453365401668,	 dev = 9.9920072216264e-14%,	 1-max(alpha1) = -1.4654943925052e-13 at cell 500,	 min(alpha1) = -9.3399718273598e-15 at cell 250
ExecutionTime = 0.29 s  ClockTime = 0 s  timeStepTime = 0 s

Courant Number mean: 0.1 max: 0.1
Interface Courant Number mean: 0.00050000000000001 max: 0.1
deltaT = 0.0033333333333333
Time = 0.296667

isoAdvection: After conservative bounding: min(alpha) = -9.138419263423e-15, max(alpha) = 1 + 1.3189449532547e-13
t = 0.29666666666667,	 sum(alpha*V) = 0.19453365401668,	 dev = 8.8817841970013e-14%,	 1-max(alpha1) = -1.3189449532547e-13 at cell 550,	 min(alpha1) = -9.138419263423e-15 at cell 250
ExecutionTime = 0.29 s  ClockTime = 0 s  timeStepTime = 0 s

Courant Number mean: 0.1 max: 0.1
Interface Courant Number mean: 0.00048333333333334 max: 0.1
deltaT = 0.0033333333333333
Time = 0.3

isoAdvection: After conservative bounding: min(alpha) = -9.0536433300346e-15, max(alpha) = 1 + 1.1879386363489e-13
t = 0.3,	 sum(alpha*V) = 0.19453365401668,	 dev = 5.5511151231258e-14%,	 1-max(alpha1) = -1.1879386363489e-13 at cell 600,	 min(alpha1) = -9.0536433300346e-15 at cell 250
ExecutionTime = 0.29 s  ClockTime = 0 s  timeStepTime = 0 s

Courant Number mean: 0.1 max: 0.1
Interface Courant Number mean: 0.00046666666666667 max: 0.1
deltaT = 0.0033333333333333
Time = 0.303333

isoAdvection: After conservative bounding: min(alpha) = -8.9968677339423e-15, max(alpha) = 1 + 1.0702549957387e-13
t = 0.30333333333333,	 sum(alpha*V) = 0.19453365401668,	 dev = 6.6613381477509e-14%,	 1-max(alpha1) = -1.0702549957387e-13 at cell 600,	 min(alpha1) = -8.9968677339423e-15 at cell 250
ExecutionTime = 0.29 s  ClockTime = 0 s  timeStepTime = 0 s

Courant Number mean: 0.1 max: 0.1
Interface Courant Number mean: 0.00050000000000001 max: 0.1
deltaT = 0.0033333333333333
Time = 0.306667

isoAdvection: After conservative bounding: min(alpha) = -8.92082027439e-15, max(alpha) = 1 + 9.6367358537464e-14
t = 0.30666666666667,	 sum(alpha*V) = 0.19453365401668,	 dev = 1.3322676295502e-13%,	 1-max(alpha1) = -9.6367358537464e-14 at cell 650,	 min(alpha1) = -8.92082027439e-15 at cell 250
ExecutionTime = 0.3 s  ClockTime = 0 s  timeStepTime = 0.01 s

Courant Number mean: 0.1 max: 0.1
Interface Courant Number mean: 0.00053333333333334 max: 0.1
deltaT = 0.0033333333333333
Time = 0.31

isoAdvection: After conservative bounding: min(alpha) = -8.8269380418439e-15, max(alpha) = 1 + 8.6819440525687e-14
t = 0.31,	 sum(alpha*V) = 0.19453365401668,	 dev = 6.6613381477509e-14%,	 1-max(alpha1) = -8.6819440525687e-14 at cell 700,	 min(alpha1) = -8.8269380418439e-15 at cell 250
ExecutionTime = 0.3 s  ClockTime = 0 s  timeStepTime = 0 s

Courant Number mean: 0.1 max: 0.1
Interface Courant Number mean: 0.00058333333333334 max: 0.1
deltaT = 0.0033333333333333
Time = 0.313333

isoAdvection: After conservative bounding: min(alpha) = -8.716657257402e-15, max(alpha) = 1 + 7.8159700933611e-14
t = 0.31333333333333,	 sum(alpha*V) = 0.19453365401668,	 dev = 9.9920072216264e-14%,	 1-max(alpha1) = -7.8159700933611e-14 at cell 700,	 min(alpha1) = -8.716657257402e-15 at cell 250
ExecutionTime = 0.3 s  ClockTime = 0 s  timeStepTime = 0 s

Courant Number mean: 0.1 max: 0.1
Interface Courant Number mean: 0.00061666666666667 max: 0.1
deltaT = 0.0033333333333333
Time = 0.316667

isoAdvection: After conservative bounding: min(alpha) = -8.5914020333526e-15, max(alpha) = 1 + 7.0388139761235e-14
t = 0.31666666666667,	 sum(alpha*V) = 0.19453365401668,	 dev = 5.5511151231258e-14%,	 1-max(alpha1) = -7.0388139761235e-14 at cell 750,	 min(alpha1) = -8.5914020333526e-15 at cell 250
ExecutionTime = 0.3 s  ClockTime = 0 s  timeStepTime = 0 s

Courant Number mean: 0.1 max: 0.1
Interface Courant Number mean: 0.00061666666666667 max: 0.1
deltaT = 0.0033333333333333
Time = 0.32

isoAdvection: After conservative bounding: min(alpha) = -8.4525745266808e-15, max(alpha) = 1 + 6.3282712403634e-14
t = 0.32,	 sum(alpha*V) = 0.19453365401668,	 dev = 1.3322676295502e-13%,	 1-max(alpha1) = -6.3282712403634e-14 at cell 800,	 min(alpha1) = -8.4525745266808e-15 at cell 250
ExecutionTime = 0.3 s  ClockTime = 0 s  timeStepTime = 0 s

Courant Number mean: 0.1 max: 0.1
Interface Courant Number mean: 0.00058333333333334 max: 0.1
deltaT = 0.0033333333333333
Time = 0.323333

isoAdvection: After conservative bounding: min(alpha) = -8.3015464105106e-15, max(alpha) = 1 + 5.7065463465733e-14
t = 0.32333333333333,	 sum(alpha*V) = 0.19453365401668,	 dev = 8.8817841970013e-14%,	 1-max(alpha1) = -5.7065463465733e-14 at cell 800,	 min(alpha1) = -8.3015464105106e-15 at cell 250
ExecutionTime = 0.3 s  ClockTime = 0 s  timeStepTime = 0 s

Courant Number mean: 0.1 max: 0.1
Interface Courant Number mean: 0.00056666666666667 max: 0.1
deltaT = 0.0033333333333333
Time = 0.326667

isoAdvection: After conservative bounding: min(alpha) = -8.1396515836723e-15, max(alpha) = 1 + 5.1292303737682e-14
t = 0.32666666666667,	 sum(alpha*V) = 0.19453365401668,	 dev = 1.1102230246252e-13%,	 1-max(alpha1) = -5.1292303737682e-14 at cell 850,	 min(alpha1) = -8.1396515836723e-15 at cell 250
ExecutionTime = 0.31 s  ClockTime = 0 s  timeStepTime = 0.01 s

Courant Number mean: 0.1 max: 0.1
Interface Courant Number mean: 0.00056666666666667 max: 0.1
deltaT = 0.0033333333333333
Time = 0.33

isoAdvection: After conservative bounding: min(alpha) = -7.9681800355378e-15, max(alpha) = 1 + 4.6185277824407e-14
t = 0.33,	 sum(alpha*V) = 0.19453365401668,	 dev = 4.4408920985006e-14%,	 1-max(alpha1) = -4.6185277824407e-14 at cell 900,	 min(alpha1) = -7.9681800355378e-15 at cell 250
ExecutionTime = 0.31 s  ClockTime = 0 s  timeStepTime = 0 s

Courant Number mean: 0.1 max: 0.1
Interface Courant Number mean: 0.00055000000000001 max: 0.1
deltaT = 0.0033333333333333
Time = 0.333333

isoAdvection: After conservative bounding: min(alpha) = -7.7883727817165e-15, max(alpha) = 1 + 4.1744385725906e-14
t = 0.33333333333333,	 sum(alpha*V) = 0.19453365401668,	 dev = 6.6613381477509e-14%,	 1-max(alpha1) = -4.1744385725906e-14 at cell 900,	 min(alpha1) = -7.7883727817165e-15 at cell 250
ExecutionTime = 0.31 s  ClockTime = 0 s  timeStepTime = 0 s

Courant Number mean: 0.1 max: 0.1
Interface Courant Number mean: 0.00056666666666667 max: 0.1
deltaT = 0.0033333333333333
Time = 0.336667

isoAdvection: After conservative bounding: min(alpha) = -7.6014177859379e-15, max(alpha) = 1 + 3.752553823233e-14
t = 0.33666666666667,	 sum(alpha*V) = 0.19453365401668,	 dev = 6.6613381477509e-14%,	 1-max(alpha1) = -3.752553823233e-14 at cell 950,	 min(alpha1) = -7.6014177859379e-15 at cell 250
ExecutionTime = 0.31 s  ClockTime = 0 s  timeStepTime = 0 s

Courant Number mean: 0.1 max: 0.1
Interface Courant Number mean: 0.00056666666666667 max: 0.1
deltaT = 0.0033333333333333
Time = 0.34

isoAdvection: After conservative bounding: min(alpha) = -7.4084467842603e-15, max(alpha) = 1 + 3.397282455353e-14
t = 0.34,	 sum(alpha*V) = 0.19453365401668,	 dev = 4.4408920985006e-14%,	 1-max(alpha1) = -3.397282455353e-14 at cell 951,	 min(alpha1) = -7.4084467842603e-15 at cell 300
ExecutionTime = 0.31 s  ClockTime = 0 s  timeStepTime = 0 s

Courant Number mean: 0.1 max: 0.1
Interface Courant Number mean: 0.00058333333333334 max: 0.1
deltaT = 0.0033333333333333
Time = 0.343333

isoAdvection: After conservative bounding: min(alpha) = -7.2405186142708e-15, max(alpha) = 1 + 3.0420110874729e-14
t = 0.34333333333333,	 sum(alpha*V) = 0.19453365401668,	 dev = 3.3306690738755e-14%,	 1-max(alpha1) = -3.0420110874729e-14 at cell 951,	 min(alpha1) = -7.2405186142708e-15 at cell 300
ExecutionTime = 0.32 s  ClockTime = 0 s  timeStepTime = 0.01 s

Courant Number mean: 0.1 max: 0.1
Interface Courant Number mean: 0.00061666666666667 max: 0.1
deltaT = 0.0033333333333333
Time = 0.346667

isoAdvection: After conservative bounding: min(alpha) = -7.1447261557174e-15, max(alpha) = 1 + 2.7533531010704e-14
t = 0.34666666666667,	 sum(alpha*V) = 0.19453365401668,	 dev = 5.5511151231258e-14%,	 1-max(alpha1) = -2.7533531010704e-14 at cell 952,	 min(alpha1) = -7.1447261557174e-15 at cell 300
ExecutionTime = 0.32 s  ClockTime = 0 s  timeStepTime = 0 s

Courant Number mean: 0.1 max: 0.1
Interface Courant Number mean: 0.00056666666666667 max: 0.1
deltaT = 0.0033333333333333
Time = 0.35

isoAdvection: After conservative bounding: min(alpha) = -7.0396692872456e-15, max(alpha) = 1 + 2.4868995751604e-14
t = 0.35,	 sum(alpha*V) = 0.19453365401668,	 dev = 6.6613381477509e-14%,	 1-max(alpha1) = -2.4868995751604e-14 at cell 953,	 min(alpha1) = -7.0396692872456e-15 at cell 300
ExecutionTime = 0.32 s  ClockTime = 0 s  timeStepTime = 0 s

Courant Number mean: 0.1 max: 0.1
Interface Courant Number mean: 0.00058333333333334 max: 0.1
deltaT = 0.0033333333333333
Time = 0.353333

isoAdvection: After conservative bounding: min(alpha) = -6.9261459368703e-15, max(alpha) = 1 + 2.2426505097428e-14
t = 0.35333333333333,	 sum(alpha*V) = 0.19453365401668,	 dev = 1.1102230246252e-13%,	 1-max(alpha1) = -2.2426505097428e-14 at cell 954,	 min(alpha1) = -6.9261459368703e-15 at cell 300
ExecutionTime = 0.32 s  ClockTime = 0 s  timeStepTime = 0 s

Courant Number mean: 0.1 max: 0.1
Interface Courant Number mean: 0.00058333333333334 max: 0.1
deltaT = 0.0033333333333333
Time = 0.356667

isoAdvection: After conservative bounding: min(alpha) = -6.8049439091722e-15, max(alpha) = 1 + 1.9984014443253e-14
t = 0.35666666666667,	 sum(alpha*V) = 0.19453365401668,	 dev = 5.5511151231258e-14%,	 1-max(alpha1) = -1.9984014443253e-14 at cell 954,	 min(alpha1) = -6.8049439091722e-15 at cell 300
ExecutionTime = 0.32 s  ClockTime = 0 s  timeStepTime = 0 s

Courant Number mean: 0.1 max: 0.1
Interface Courant Number mean: 0.00060000000000001 max: 0.1
deltaT = 0.0033333333333333
Time = 0.36

isoAdvection: After conservative bounding: min(alpha) = -6.6768366906941e-15, max(alpha) = 1 + 1.7985612998928e-14
t = 0.36,	 sum(alpha*V) = 0.19453365401668,	 dev = 5.5511151231258e-14%,	 1-max(alpha1) = -1.7985612998928e-14 at cell 955,	 min(alpha1) = -6.6768366906941e-15 at cell 300
ExecutionTime = 0.32 s  ClockTime = 0 s  timeStepTime = 0 s

Courant Number mean: 0.1 max: 0.1
Interface Courant Number mean: 0.00058333333333334 max: 0.1
deltaT = 0.0033333333333333
Time = 0.363333

isoAdvection: After conservative bounding: min(alpha) = -6.5425797654859e-15, max(alpha) = 1 + 1.6209256159527e-14
t = 0.36333333333333,	 sum(alpha*V) = 0.19453365401668,	 dev = 6.6613381477509e-14%,	 1-max(alpha1) = -1.6209256159527e-14 at cell 956,	 min(alpha1) = -6.5425797654859e-15 at cell 300
ExecutionTime = 0.33 s  ClockTime = 0 s  timeStepTime = 0.01 s

Courant Number mean: 0.1 max: 0.1
Interface Courant Number mean: 0.00055000000000001 max: 0.1
deltaT = 0.0033333333333333
Time = 0.366667

isoAdvection: After conservative bounding: min(alpha) = -5.1613565273575e-13, max(alpha) = 1 + 3.1952218648712e-13
t = 0.36666666666667,	 sum(alpha*V) = 0.19453365401668,	 dev = 9.9920072216264e-14%,	 1-max(alpha1) = -3.1952218648712e-13 at cell 956,	 min(alpha1) = -5.1613565273575e-13 at cell 300
ExecutionTime = 0.33 s  ClockTime = 0 s  timeStepTime = 0 s

Courant Number mean: 0.1 max: 0.1
Interface Courant Number mean: 0.00055000000000001 max: 0.1
deltaT = 0.0033333333333333
Time = 0.37

isoAdvection: After conservative bounding: min(alpha) = -4.645909369642e-13, max(alpha) = 1 + 2.8799185258777e-13
t = 0.37,	 sum(alpha*V) = 0.19453365401668,	 dev = 5.5511151231258e-14%,	 1-max(alpha1) = -2.8799185258777e-13 at cell 957,	 min(alpha1) = -4.645909369642e-13 at cell 300
ExecutionTime = 0.33 s  ClockTime = 0 s  timeStepTime = 0 s

Courant Number mean: 0.1 max: 0.1
Interface Courant Number mean: 0.00056666666666667 max: 0.1
deltaT = 0.0033333333333333
Time = 0.373333

isoAdvection: After conservative bounding: min(alpha) = -5.3292851613188e-13, max(alpha) = 1 + 2.5957014315736e-13
t = 0.37333333333333,	 sum(alpha*V) = 0.19453365401668,	 dev = 9.9920072216264e-14%,	 1-max(alpha1) = -2.5957014315736e-13 at cell 958,	 min(alpha1) = -5.3292851613188e-13 at cell 300
ExecutionTime = 0.33 s  ClockTime = 0 s  timeStepTime = 0 s

Courant Number mean: 0.1 max: 0.1
Interface Courant Number mean: 0.00056666666666667 max: 0.1
deltaT = 0.0033333333333333
Time = 0.376667

isoAdvection: After conservative bounding: min(alpha) = -4.2657025195738e-13, max(alpha) = 1 + 2.1693757901176e-13
t = 0.37666666666667,	 sum(alpha*V) = 0.19453365401668,	 dev = 3.3306690738755e-14%,	 1-max(alpha1) = -2.1693757901176e-13 at cell 959,	 min(alpha1) = -4.2657025195738e-13 at cell 300
ExecutionTime = 0.33 s  ClockTime = 0 s  timeStepTime = 0 s

Courant Number mean: 0.1 max: 0.1
Interface Courant Number mean: 0.00058333333333334 max: 0.1
deltaT = 0.0033333333333333
Time = 0.38

isoAdvection: After conservative bounding: min(alpha) = -3.4149457444779e-13, max(alpha) = 1 + 1.8118839761883e-13
t = 0.38,	 sum(alpha*V) = 0.19453365401668,	 dev = 8.8817841970013e-14%,	 1-max(alpha1) = -1.8118839761883e-13 at cell 959,	 min(alpha1) = -3.4149457444779e-13 at cell 300
ExecutionTime = 0.33 s  ClockTime = 0 s  timeStepTime = 0 s

Courant Number mean: 0.1 max: 0.1
Interface Courant Number mean: 0.00060000000000001 max: 0.1
deltaT = 0.0033333333333333
Time = 0.383333

isoAdvection: After conservative bounding: min(alpha) = -2.734415944873e-13, max(alpha) = 1 + 1.5143442055887e-13
t = 0.38333333333333,	 sum(alpha*V) = 0.19453365401668,	 dev = 5.5511151231258e-14%,	 1-max(alpha1) = -1.5143442055887e-13 at cell 960,	 min(alpha1) = -2.734415944873e-13 at cell 300
ExecutionTime = 0.33 s  ClockTime = 0 s  timeStepTime = 0 s

Courant Number mean: 0.1 max: 0.1
Interface Courant Number mean: 0.00060000000000001 max: 0.1
deltaT = 0.0033333333333333
Time = 0.386667

isoAdvection: After conservative bounding: min(alpha) = -2.4635249692163e-13, max(alpha) = 1 + 1.3677947663382e-13
t = 0.38666666666667,	 sum(alpha*V) = 0.19453365401668,	 dev = 4.4408920985006e-14%,	 1-max(alpha1) = -1.3677947663382e-13 at cell 961,	 min(alpha1) = -2.4635249692163e-13 at cell 300
ExecutionTime = 0.34 s  ClockTime = 0 s  timeStepTime = 0.01 s

Courant Number mean: 0.1 max: 0.1
Interface Courant Number mean: 0.00058333333333334 max: 0.1
deltaT = 0.0033333333333333
Time = 0.39

isoAdvection: After conservative bounding: min(alpha) = -2.0555585911528e-13, max(alpha) = 1 + 1.2345680033832e-13
t = 0.39,	 sum(alpha*V) = 0.19453365401668,	 dev = 4.4408920985006e-14%,	 1-max(alpha1) = -1.2345680033832e-13 at cell 961,	 min(alpha1) = -2.0555585911528e-13 at cell 300
ExecutionTime = 0.34 s  ClockTime = 0 s  timeStepTime = 0 s

Courant Number mean: 0.1 max: 0.1
Interface Courant Number mean: 0.00058333333333334 max: 0.1
deltaT = 0.0033333333333333
Time = 0.393333

isoAdvection: After conservative bounding: min(alpha) = -1.8526846900385e-13, max(alpha) = 1 + 1.1168843627729e-13
t = 0.39333333333333,	 sum(alpha*V) = 0.19453365401668,	 dev = 5.5511151231258e-14%,	 1-max(alpha1) = -1.1168843627729e-13 at cell 962,	 min(alpha1) = -1.8526846900385e-13 at cell 300
ExecutionTime = 0.34 s  ClockTime = 0 s  timeStepTime = 0 s

Courant Number mean: 0.1 max: 0.1
Interface Courant Number mean: 0.00048333333333334 max: 0.1
deltaT = 0.0033333333333333
Time = 0.396667

isoAdvection: After conservative bounding: min(alpha) = -1.5466263622507e-13, max(alpha) = 1 + 1.0103029524089e-13
t = 0.39666666666667,	 sum(alpha*V) = 0.19453365401668,	 dev = 4.4408920985006e-14%,	 1-max(alpha1) = -1.0103029524089e-13 at cell 963,	 min(alpha1) = -1.5466263622507e-13 at cell 300
ExecutionTime = 0.34 s  ClockTime = 0 s  timeStepTime = 0 s

Courant Number mean: 0.1 max: 0.1
Interface Courant Number mean: 0.00048333333333334 max: 0.1
deltaT = 0.0033333333333333
Time = 0.4

isoAdvection: After conservative bounding: min(alpha) = -1.2916290512171e-13, max(alpha) = 1 + 9.1260332624188e-14
t = 0.4,	 sum(alpha*V) = 0.19453365401668,	 dev = 5.5511151231258e-14%,	 1-max(alpha1) = -9.1260332624188e-14 at cell 963,	 min(alpha1) = -1.2916290512171e-13 at cell 300
ExecutionTime = 0.34 s  ClockTime = 0 s  timeStepTime = 0 s

Courant Number mean: 0.1 max: 0.1
Interface Courant Number mean: 0.00046666666666667 max: 0.1
deltaT = 0.0033333333333333
Time = 0.403333

isoAdvection: After conservative bounding: min(alpha) = -1.165262969827e-13, max(alpha) = 1 + 8.2600593032112e-14
t = 0.40333333333333,	 sum(alpha*V) = 0.19453365401668,	 dev = 3.3306690738755e-14%,	 1-max(alpha1) = -8.2600593032112e-14 at cell 964,	 min(alpha1) = -1.165262969827e-13 at cell 300
ExecutionTime = 0.34 s  ClockTime = 0 s  timeStepTime = 0 s

Courant Number mean: 0.1 max: 0.1
Interface Courant Number mean: 0.00053333333333334 max: 0.1
deltaT = 0.0033333333333333
Time = 0.406667

isoAdvection: After conservative bounding: min(alpha) = -1.051561050478e-13, max(alpha) = 1 + 7.4829031859736e-14
t = 0.40666666666667,	 sum(alpha*V) = 0.19453365401668,	 dev = 8.8817841970013e-14%,	 1-max(alpha1) = -7.4829031859736e-14 at cell 965,	 min(alpha1) = -1.051561050478e-13 at cell 300
ExecutionTime = 0.35 s  ClockTime = 0 s  timeStepTime = 0.01 s

Courant Number mean: 0.1 max: 0.1
Interface Courant Number mean: 0.00055000000000001 max: 0.1
deltaT = 0.0033333333333333
Time = 0.41

isoAdvection: After conservative bounding: min(alpha) = -9.4923584419861e-14, max(alpha) = 1 + 6.7723604502135e-14
t = 0.41,	 sum(alpha*V) = 0.19453365401668,	 dev = 3.3306690738755e-14%,	 1-max(alpha1) = -6.7723604502135e-14 at cell 966,	 min(alpha1) = -9.4923584419861e-14 at cell 300
ExecutionTime = 0.35 s  ClockTime = 0 s  timeStepTime = 0 s

Courant Number mean: 0.1 max: 0.1
Interface Courant Number mean: 0.00058333333333334 max: 0.1
deltaT = 0.0033333333333333
Time = 0.413333

isoAdvection: After conservative bounding: min(alpha) = -8.571510245892e-14, max(alpha) = 1 + 6.1284310959309e-14
t = 0.41333333333333,	 sum(alpha*V) = 0.19453365401668,	 dev = 5.5511151231258e-14%,	 1-max(alpha1) = -6.1284310959309e-14 at cell 966,	 min(alpha1) = -8.571510245892e-14 at cell 300
ExecutionTime = 0.35 s  ClockTime = 0 s  timeStepTime = 0 s

Courant Number mean: 0.1 max: 0.1
Interface Courant Number mean: 0.00061666666666667 max: 0.1
deltaT = 0.0033333333333333
Time = 0.416667

isoAdvection: After conservative bounding: min(alpha) = -7.7427198474816e-14, max(alpha) = 1 + 5.5511151231258e-14
t = 0.41666666666667,	 sum(alpha*V) = 0.19453365401668,	 dev = 4.4408920985006e-14%,	 1-max(alpha1) = -5.5511151231258e-14 at cell 967,	 min(alpha1) = -7.7427198474816e-14 at cell 300
ExecutionTime = 0.35 s  ClockTime = 0 s  timeStepTime = 0 s

Courant Number mean: 0.1 max: 0.1
Interface Courant Number mean: 0.00061666666666667 max: 0.1
deltaT = 0.0033333333333333
Time = 0.42

isoAdvection: After conservative bounding: min(alpha) = -6.9967176754284e-14, max(alpha) = 1 + 5.0404125317982e-14
t = 0.42,	 sum(alpha*V) = 0.19453365401668,	 dev = 5.5511151231258e-14%,	 1-max(alpha1) = -5.0404125317982e-14 at cell 968,	 min(alpha1) = -6.9967176754284e-14 at cell 300
ExecutionTime = 0.35 s  ClockTime = 0 s  timeStepTime = 0 s

Courant Number mean: 0.1 max: 0.1
Interface Courant Number mean: 0.00056666666666667 max: 0.1
deltaT = 0.0033333333333333
Time = 0.423333

isoAdvection: After conservative bounding: min(alpha) = -1.0693612662038e-13, max(alpha) = 1 + 4.5741188614556e-14
t = 0.42333333333333,	 sum(alpha*V) = 0.19453365401668,	 dev = 4.4408920985006e-14%,	 1-max(alpha1) = -4.5741188614556e-14 at cell 968,	 min(alpha1) = -1.0693612662038e-13 at cell 300
ExecutionTime = 0.36 s  ClockTime = 0 s  timeStepTime = 0.01 s

Courant Number mean: 0.1 max: 0.1
Interface Courant Number mean: 0.00056666666666667 max: 0.1
deltaT = 0.0033333333333333
Time = 0.426667

isoAdvection: After conservative bounding: min(alpha) = -9.6718670132988e-14, max(alpha) = 1 + 4.1522341120981e-14
t = 0.42666666666667,	 sum(alpha*V) = 0.19453365401668,	 dev = 1.1102230246252e-14%,	 1-max(alpha1) = -4.1522341120981e-14 at cell 969,	 min(alpha1) = -9.6718670132988e-14 at cell 300
ExecutionTime = 0.36 s  ClockTime = 0 s  timeStepTime = 0 s

Courant Number mean: 0.1 max: 0.1
Interface Courant Number mean: 0.00056666666666667 max: 0.1
deltaT = 0.0033333333333333
Time = 0.43

isoAdvection: After conservative bounding: min(alpha) = -8.7537156064419e-14, max(alpha) = 1 + 3.7747582837255e-14
t = 0.43,	 sum(alpha*V) = 0.19453365401668,	 dev = 4.4408920985006e-14%,	 1-max(alpha1) = -3.7747582837255e-14 at cell 970,	 min(alpha1) = -8.7537156064419e-14 at cell 300
ExecutionTime = 0.36 s  ClockTime = 0 s  timeStepTime = 0 s

Courant Number mean: 0.1 max: 0.1
Interface Courant Number mean: 0.00055000000000001 max: 0.1
deltaT = 0.0033333333333333
Time = 0.433333

isoAdvection: After conservative bounding: min(alpha) = -7.9278961195418e-14, max(alpha) = 1 + 3.4194869158455e-14
t = 0.43333333333333,	 sum(alpha*V) = 0.19453365401668,	 dev = 4.4408920985006e-14%,	 1-max(alpha1) = -3.4194869158455e-14 at cell 970,	 min(alpha1) = -7.9278961195418e-14 at cell 300
ExecutionTime = 0.36 s  ClockTime = 0 s  timeStepTime = 0 s

Courant Number mean: 0.1 max: 0.1
Interface Courant Number mean: 0.00056666666666667 max: 0.1
deltaT = 0.0033333333333333
Time = 0.436667

isoAdvection: After conservative bounding: min(alpha) = -7.1847942770435e-14, max(alpha) = 1 + 3.1086244689504e-14
t = 0.43666666666667,	 sum(alpha*V) = 0.19453365401668,	 dev = 4.4408920985006e-14%,	 1-max(alpha1) = -3.1086244689504e-14 at cell 971,	 min(alpha1) = -7.1847942770435e-14 at cell 300
ExecutionTime = 0.36 s  ClockTime = 0 s  timeStepTime = 0 s

Courant Number mean: 0.1 max: 0.1
Interface Courant Number mean: 0.00056666666666667 max: 0.1
deltaT = 0.0033333333333333
Time = 0.44

isoAdvection: After conservative bounding: min(alpha) = -6.5156298351906e-14, max(alpha) = 1 + 2.8199664825479e-14
t = 0.44,	 sum(alpha*V) = 0.19453365401668,	 dev = 1.1102230246252e-14%,	 1-max(alpha1) = -2.8199664825479e-14 at cell 972,	 min(alpha1) = -6.5156298351906e-14 at cell 300
ExecutionTime = 0.37 s  ClockTime = 0 s  timeStepTime = 0.01 s

Courant Number mean: 0.1 max: 0.1
Interface Courant Number mean: 0.00058333333333334 max: 0.1
deltaT = 0.0033333333333333
Time = 0.443333

isoAdvection: After conservative bounding: min(alpha) = -5.9123584458626e-14, max(alpha) = 1 + 2.5757174171304e-14
t = 0.44333333333333,	 sum(alpha*V) = 0.19453365401668,	 dev = 5.5511151231258e-14%,	 1-max(alpha1) = -2.5757174171304e-14 at cell 973,	 min(alpha1) = -5.9123584458626e-14 at cell 300
ExecutionTime = 0.37 s  ClockTime = 0 s  timeStepTime = 0 s

Courant Number mean: 0.1 max: 0.1
Interface Courant Number mean: 0.00061666666666667 max: 0.1
deltaT = 0.0033333333333333
Time = 0.446667

isoAdvection: After conservative bounding: min(alpha) = -5.3684016959354e-14, max(alpha) = 1 + 2.3536728122053e-14
t = 0.44666666666667,	 sum(alpha*V) = 0.19453365401668,	 dev = 0%,	 1-max(alpha1) = -2.3536728122053e-14 at cell 973,	 min(alpha1) = -5.3684016959354e-14 at cell 350
ExecutionTime = 0.37 s  ClockTime = 0 s  timeStepTime = 0 s

Courant Number mean: 0.1 max: 0.1
Interface Courant Number mean: 0.00056666666666667 max: 0.1
deltaT = 0.0033333333333333
Time = 0.45

isoAdvection: After conservative bounding: min(alpha) = -4.8774703993279e-14, max(alpha) = 1 + 2.1760371282653e-14
t = 0.45,	 sum(alpha*V) = 0.19453365401668,	 dev = 1.1102230246252e-14%,	 1-max(alpha1) = -2.1760371282653e-14 at cell 974,	 min(alpha1) = -4.8774703993279e-14 at cell 350
ExecutionTime = 0.37 s  ClockTime = 0 s  timeStepTime = 0 s

Courant Number mean: 0.1 max: 0.1
Interface Courant Number mean: 0.00058333333333334 max: 0.1
deltaT = 0.0033333333333333
Time = 0.453333

isoAdvection: After conservative bounding: min(alpha) = -4.4340530089484e-14, max(alpha) = 1 + 2.1316282072803e-14
t = 0.45333333333333,	 sum(alpha*V) = 0.19453365401668,	 dev = 5.5511151231258e-14%,	 1-max(alpha1) = -2.1316282072803e-14 at cell 975,	 min(alpha1) = -4.4340530089484e-14 at cell 350
ExecutionTime = 0.37 s  ClockTime = 0 s  timeStepTime = 0 s

Courant Number mean: 0.1 max: 0.1
Interface Courant Number mean: 0.00058333333333334 max: 0.1
deltaT = 0.0033333333333333
Time = 0.456667

isoAdvection: After conservative bounding: min(alpha) = -4.0332877505111e-14, max(alpha) = 1 + 2.0872192862953e-14
t = 0.45666666666667,	 sum(alpha*V) = 0.19453365401668,	 dev = 4.4408920985006e-14%,	 1-max(alpha1) = -2.0872192862953e-14 at cell 975,	 min(alpha1) = -4.0332877505111e-14 at cell 350
ExecutionTime = 0.38 s  ClockTime = 0 s  timeStepTime = 0.01 s

Courant Number mean: 0.1 max: 0.1
Interface Courant Number mean: 0.00060000000000001 max: 0.1
deltaT = 0.0033333333333333
Time = 0.46

isoAdvection: After conservative bounding: min(alpha) = -3.6708114024396e-14, max(alpha) = 1 + 1.9984014443253e-14
t = 0.46,	 sum(alpha*V) = 0.19453365401668,	 dev = 1.1102230246252e-14%,	 1-max(alpha1) = -1.9984014443253e-14 at cell 976,	 min(alpha1) = -3.6708114024396e-14 at cell 350
ExecutionTime = 0.38 s  ClockTime = 0 s  timeStepTime = 0 s

Courant Number mean: 0.1 max: 0.1
Interface Courant Number mean: 0.00058333333333334 max: 0.1
deltaT = 0.0033333333333333
Time = 0.463333

isoAdvection: After conservative bounding: min(alpha) = -3.4168614669693e-14, max(alpha) = 1 + 1.9095836023553e-14
t = 0.46333333333333,	 sum(alpha*V) = 0.19453365401668,	 dev = 1.1102230246252e-14%,	 1-max(alpha1) = -1.9095836023553e-14 at cell 977,	 min(alpha1) = -3.4168614669693e-14 at cell 350
ExecutionTime = 0.38 s  ClockTime = 0 s  timeStepTime = 0 s

Courant Number mean: 0.1 max: 0.1
Interface Courant Number mean: 0.00053333333333334 max: 0.1
deltaT = 0.0033333333333333
Time = 0.466667

isoAdvection: After conservative bounding: min(alpha) = -3.2190797893504e-14, max(alpha) = 1 + 1.8429702208778e-14
t = 0.46666666666667,	 sum(alpha*V) = 0.19453365401668,	 dev = 5.5511151231258e-14%,	 1-max(alpha1) = -1.8429702208778e-14 at cell 978,	 min(alpha1) = -3.2190797893504e-14 at cell 350
ExecutionTime = 0.38 s  ClockTime = 0 s  timeStepTime = 0 s

Courant Number mean: 0.1 max: 0.1
Interface Courant Number mean: 0.00055000000000001 max: 0.1
deltaT = 0.0033333333333333
Time = 0.47

isoAdvection: After conservative bounding: min(alpha) = -3.0291921665536e-14, max(alpha) = 1 + 1.7541523789077e-14
t = 0.47,	 sum(alpha*V) = 0.19453365401668,	 dev = 1.1102230246252e-14%,	 1-max(alpha1) = -1.7541523789077e-14 at cell 978,	 min(alpha1) = -3.0291921665536e-14 at cell 350
ExecutionTime = 0.38 s  ClockTime = 0 s  timeStepTime = 0 s

Courant Number mean: 0.1 max: 0.1
Interface Courant Number mean: 0.00056666666666667 max: 0.1
deltaT = 0.0033333333333333
Time = 0.473333

isoAdvection: After conservative bounding: min(alpha) = -2.8475245944124e-14, max(alpha) = 1 + 1.6875389974302e-14
t = 0.47333333333333,	 sum(alpha*V) = 0.19453365401668,	 dev = 3.3306690738755e-14%,	 1-max(alpha1) = -1.6875389974302e-14 at cell 979,	 min(alpha1) = -2.8475245944124e-14 at cell 350
ExecutionTime = 0.39 s  ClockTime = 0 s  timeStepTime = 0.01 s

Courant Number mean: 0.1 max: 0.1
Interface Courant Number mean: 0.00056666666666667 max: 0.1
deltaT = 0.0033333333333333
Time = 0.476667

isoAdvection: After conservative bounding: min(alpha) = -2.6742587776865e-14, max(alpha) = 1 + 1.6209256159527e-14
t = 0.47666666666667,	 sum(alpha*V) = 0.19453365401668,	 dev = 8.8817841970013e-14%,	 1-max(alpha1) = -1.6209256159527e-14 at cell 980,	 min(alpha1) = -2.6742587776865e-14 at cell 350
ExecutionTime = 0.39 s  ClockTime = 0 s  timeStepTime = 0 s

Courant Number mean: 0.1 max: 0.1
Interface Courant Number mean: 0.00058333333333334 max: 0.1
deltaT = 0.0033333333333333
Time = 0.48

isoAdvection: After conservative bounding: min(alpha) = -2.5941729329241e-14, max(alpha) = 1 + 1.5543122344752e-14
t = 0.48,	 sum(alpha*V) = 0.19453365401668,	 dev = 1.1102230246252e-14%,	 1-max(alpha1) = -1.5543122344752e-14 at cell 980,	 min(alpha1) = -2.5941729329241e-14 at cell 350
ExecutionTime = 0.39 s  ClockTime = 0 s  timeStepTime = 0 s

Courant Number mean: 0.1 max: 0.1
Interface Courant Number mean: 0.00060000000000001 max: 0.1
deltaT = 0.0033333333333333
Time = 0.483333

isoAdvection: After conservative bounding: min(alpha) = -2.5146178254988e-14, max(alpha) = 1 + 1.4876988529977e-14
t = 0.48333333333333,	 sum(alpha*V) = 0.19453365401668,	 dev = 4.4408920985006e-14%,	 1-max(alpha1) = -1.4876988529977e-14 at cell 981,	 min(alpha1) = -2.5146178254988e-14 at cell 350
ExecutionTime = 0.39 s  ClockTime = 0 s  timeStepTime = 0 s

Courant Number mean: 0.1 max: 0.1
Interface Courant Number mean: 0.00060000000000001 max: 0.1
deltaT = 0.0033333333333333
Time = 0.486667

isoAdvection: After conservative bounding: min(alpha) = -2.4323980530011e-14, max(alpha) = 1 + 1.4210854715202e-14
t = 0.48666666666667,	 sum(alpha*V) = 0.19453365401668,	 dev = 1.1102230246252e-14%,	 1-max(alpha1) = -1.4210854715202e-14 at cell 982,	 min(alpha1) = -2.4323980530011e-14 at cell 350
ExecutionTime = 0.39 s  ClockTime = 0 s  timeStepTime = 0 s

Courant Number mean: 0.1 max: 0.1
Interface Courant Number mean: 0.00058333333333334 max: 0.1
deltaT = 0.0033333333333333
Time = 0.49

isoAdvection: After conservative bounding: min(alpha) = -7.1267621433909e-13, max(alpha) = 1 + 1.3544720900427e-14
t = 0.49,	 sum(alpha*V) = 0.19453365401668,	 dev = 6.6613381477509e-14%,	 1-max(alpha1) = -1.3544720900427e-14 at cell 982,	 min(alpha1) = -7.1267621433909e-13 at cell 350
ExecutionTime = 0.4 s  ClockTime = 0 s  timeStepTime = 0.01 s

Courant Number mean: 0.1 max: 0.1
Interface Courant Number mean: 0.00058333333333334 max: 0.1
deltaT = 0.0033333333333333
Time = 0.493333

isoAdvection: After conservative bounding: min(alpha) = -6.4248741696806e-13, max(alpha) = 1 + 1.2878587085652e-14
t = 0.49333333333333,	 sum(alpha*V) = 0.19453365401668,	 dev = 4.4408920985006e-14%,	 1-max(alpha1) = -1.2878587085652e-14 at cell 983,	 min(alpha1) = -6.4248741696806e-13 at cell 350
ExecutionTime = 0.4 s  ClockTime = 0 s  timeStepTime = 0 s

Courant Number mean: 0.1 max: 0.1
Interface Courant Number mean: 0.00048333333333334 max: 0.1
deltaT = 0.0033333333333333
Time = 0.496667

isoAdvection: After conservative bounding: min(alpha) = -5.1513874423528e-13, max(alpha) = 1 + 1.2212453270877e-14
t = 0.49666666666667,	 sum(alpha*V) = 0.19453365401668,	 dev = 0%,	 1-max(alpha1) = -1.2212453270877e-14 at cell 984,	 min(alpha1) = -5.1513874423528e-13 at cell 350
ExecutionTime = 0.4 s  ClockTime = 0 s  timeStepTime = 0 s

Courant Number mean: 0.1 max: 0.1
Interface Courant Number mean: 0.00048333333333334 max: 0.1
deltaT = 0.0033333333333333
Time = 0.5

isoAdvection: After conservative bounding: min(alpha) = -4.1332106051449e-13, max(alpha) = 1 + 1.1546319456102e-14
t = 0.5,	 sum(alpha*V) = 0.19453365401668,	 dev = 1.1102230246252e-14%,	 1-max(alpha1) = -1.1546319456102e-14 at cell 985,	 min(alpha1) = -4.1332106051449e-13 at cell 350
ExecutionTime = 0.4 s  ClockTime = 0 s  timeStepTime = 0 s

Courant Number mean: 0.1 max: 0.1
Interface Courant Number mean: 0.00046666666666667 max: 0.1
deltaT = 0.0033333333333333
Time = 0.503333

isoAdvection: After conservative bounding: min(alpha) = -3.7325146444146e-13, max(alpha) = 1 + 4.8383519413164e-13
t = 0.50333333333333,	 sum(alpha*V) = 0.19453365401668,	 dev = 1.1102230246252e-14%,	 1-max(alpha1) = -4.8383519413164e-13 at cell 985,	 min(alpha1) = -3.7325146444146e-13 at cell 350
ExecutionTime = 0.4 s  ClockTime = 0 s  timeStepTime = 0 s

Courant Number mean: 0.1 max: 0.1
Interface Courant Number mean: 0.00053333333333334 max: 0.1
deltaT = 0.0033333333333333
Time = 0.506667

isoAdvection: After conservative bounding: min(alpha) = -2.9990794459698e-13, max(alpha) = 1 + 3.876898801991e-13
t = 0.50666666666667,	 sum(alpha*V) = 0.19453365401668,	 dev = 0%,	 1-max(alpha1) = -3.876898801991e-13 at cell 986,	 min(alpha1) = -2.9990794459698e-13 at cell 350
ExecutionTime = 0.4 s  ClockTime = 0 s  timeStepTime = 0 s

Courant Number mean: 0.1 max: 0.1
Interface Courant Number mean: 0.00055000000000001 max: 0.1
deltaT = 0.0033333333333333
Time = 0.51

isoAdvection: After conservative bounding: min(alpha) = -2.5126768522535e-13, max(alpha) = 1 + 3.1086244689504e-13
t = 0.51,	 sum(alpha*V) = 0.19453365401668,	 dev = 1.1102230246252e-14%,	 1-max(alpha1) = -3.1086244689504e-13 at cell 987,	 min(alpha1) = -2.5126768522535e-13 at cell 350
ExecutionTime = 0.41 s  ClockTime = 0 s  timeStepTime = 0.01 s

Courant Number mean: 0.1 max: 0.1
Interface Courant Number mean: 0.00060000000000001 max: 0.1
deltaT = 0.0033333333333333
Time = 0.513333

isoAdvection: After conservative bounding: min(alpha) = -2.2751332942036e-13, max(alpha) = 1 + 2.8066438062524e-13
t = 0.51333333333333,	 sum(alpha*V) = 0.19453365401668,	 dev = -2.2204460492503e-14%,	 1-max(alpha1) = -2.8066438062524e-13 at cell 987,	 min(alpha1) = -2.2751332942036e-13 at cell 350
ExecutionTime = 0.41 s  ClockTime = 0 s  timeStepTime = 0 s

Courant Number mean: 0.1 max: 0.1
Interface Courant Number mean: 0.00061666666666667 max: 0.1
deltaT = 0.0033333333333333
Time = 0.516667

isoAdvection: After conservative bounding: min(alpha) = -2.0615402192147e-13, max(alpha) = 1 + 2.5335289421946e-13
t = 0.51666666666667,	 sum(alpha*V) = 0.19453365401668,	 dev = 3.3306690738755e-14%,	 1-max(alpha1) = -2.5335289421946e-13 at cell 988,	 min(alpha1) = -2.0615402192147e-13 at cell 350
ExecutionTime = 0.41 s  ClockTime = 0 s  timeStepTime = 0 s

Courant Number mean: 0.1 max: 0.1
Interface Courant Number mean: 0.00061666666666667 max: 0.1
deltaT = 0.0033333333333333
Time = 0.52

isoAdvection: After conservative bounding: min(alpha) = -1.7320215072828e-13, max(alpha) = 1 + 2.1183055309848e-13
t = 0.52,	 sum(alpha*V) = 0.19453365401668,	 dev = 0%,	 1-max(alpha1) = -2.1183055309848e-13 at cell 989,	 min(alpha1) = -1.7320215072828e-13 at cell 350
ExecutionTime = 0.41 s  ClockTime = 0 s  timeStepTime = 0 s

Courant Number mean: 0.1 max: 0.1
Interface Courant Number mean: 0.00056666666666667 max: 0.1
deltaT = 0.0033333333333333
Time = 0.523333

isoAdvection: After conservative bounding: min(alpha) = -1.5729997708454e-13, max(alpha) = 1 + 1.7719159473017e-13
t = 0.52333333333333,	 sum(alpha*V) = 0.19453365401668,	 dev = -6.6613381477509e-14%,	 1-max(alpha1) = -1.7719159473017e-13 at cell 989,	 min(alpha1) = -1.5729997708454e-13 at cell 350
ExecutionTime = 0.41 s  ClockTime = 0 s  timeStepTime = 0 s

Courant Number mean: 0.1 max: 0.1
Interface Courant Number mean: 0.00056666666666667 max: 0.1
deltaT = 0.0033333333333333
Time = 0.526667

isoAdvection: After conservative bounding: min(alpha) = -1.4117841516905e-13, max(alpha) = 1 + 1.4854784069485e-13
t = 0.52666666666667,	 sum(alpha*V) = 0.19453365401668,	 dev = 4.4408920985006e-14%,	 1-max(alpha1) = -1.4854784069485e-13 at cell 990,	 min(alpha1) = -1.4117841516905e-13 at cell 350
ExecutionTime = 0.42 s  ClockTime = 0 s  timeStepTime = 0.01 s

Courant Number mean: 0.1 max: 0.1
Interface Courant Number mean: 0.00056666666666667 max: 0.1
deltaT = 0.0033333333333333
Time = 0.53

isoAdvection: After conservative bounding: min(alpha) = -1.3627681361478e-13, max(alpha) = 1 + 1.3455903058457e-13
t = 0.53,	 sum(alpha*V) = 0.19453365401668,	 dev = 1.1102230246252e-14%,	 1-max(alpha1) = -1.3455903058457e-13 at cell 991,	 min(alpha1) = -1.3627681361478e-13 at cell 350
ExecutionTime = 0.42 s  ClockTime = 0 s  timeStepTime = 0 s

Courant Number mean: 0.1 max: 0.1
Interface Courant Number mean: 0.00055000000000001 max: 0.1
deltaT = 0.0033333333333333
Time = 0.533333

isoAdvection: After conservative bounding: min(alpha) = -1.3107725319057e-13, max(alpha) = 1 + 1.2190248810384e-13
t = 0.53333333333333,	 sum(alpha*V) = 0.19453365401668,	 dev = 0%,	 1-max(alpha1) = -1.2190248810384e-13 at cell 992,	 min(alpha1) = -1.3107725319057e-13 at cell 350
ExecutionTime = 0.42 s  ClockTime = 0 s  timeStepTime = 0 s

Courant Number mean: 0.1 max: 0.1
Interface Courant Number mean: 0.00060000000000001 max: 0.1
deltaT = 0.0033333333333333
Time = 0.536667

isoAdvection: After conservative bounding: min(alpha) = -1.2568284337027e-13, max(alpha) = 1 + 1.1035616864774e-13
t = 0.53666666666667,	 sum(alpha*V) = 0.19453365401668,	 dev = -2.2204460492503e-14%,	 1-max(alpha1) = -1.1035616864774e-13 at cell 992,	 min(alpha1) = -1.2568284337027e-13 at cell 350
ExecutionTime = 0.42 s  ClockTime = 0 s  timeStepTime = 0 s

[...]
ExecutionTime = 2.05 s  ClockTime = 2 s  timeStepTime = 0 s

Courant Number mean: 0.099999999999999 max: 0.099999999999997
Interface Courant Number mean: 0.00056666666666665 max: 0.099999999999997
deltaT = 0.0033333333333332
Time = 3.87667

isoAdvection: After conservative bounding: min(alpha) = -2.8760112374739e-14, max(alpha) = 1 + -2.4202861936828e-14
t = 3.8766666666667,	 sum(alpha*V) = 0.19453365401668,	 dev = -1.7763568394003e-13%,	 1-max(alpha1) = 2.4202861936828e-14 at cell 0,	 min(alpha1) = -2.8760112374739e-14 at cell 999
ExecutionTime = 2.05 s  ClockTime = 2 s  timeStepTime = 0 s

Courant Number mean: 0.099999999999999 max: 0.099999999999997
Interface Courant Number mean: 0.00058333333333332 max: 0.099999999999997
deltaT = 0.0033333333333332
Time = 3.88

isoAdvection: After conservative bounding: min(alpha) = -2.6211989753816e-14, max(alpha) = 1 + 0
t = 3.88,	 sum(alpha*V) = 0.19453365401668,	 dev = -1.3322676295502e-13%,	 1-max(alpha1) = 0 at cell 0,	 min(alpha1) = -2.6211989753816e-14 at cell 999
ExecutionTime = 2.05 s  ClockTime = 2 s  timeStepTime = 0 s

Courant Number mean: 0.099999999999999 max: 0.099999999999997
Interface Courant Number mean: 0.00054999999999998 max: 0.099999999999996
deltaT = 0.0033333333333332
Time = 3.88333

isoAdvection: After conservative bounding: min(alpha) = -2.3978909614663e-14, max(alpha) = 1 + -4.5519144009631e-15
t = 3.8833333333333,	 sum(alpha*V) = 0.19453365401668,	 dev = -2.2204460492503e-14%,	 1-max(alpha1) = 4.5519144009631e-15 at cell 0,	 min(alpha1) = -2.3978909614663e-14 at cell 999
ExecutionTime = 2.05 s  ClockTime = 2 s  timeStepTime = 0 s

Courant Number mean: 0.099999999999999 max: 0.099999999999997
Interface Courant Number mean: 0.00051666666666665 max: 0.099999999999997
deltaT = 0.0033333333333332
Time = 3.88667

isoAdvection: After conservative bounding: min(alpha) = -2.3294501442459e-14, max(alpha) = 1 + 0
t = 3.8866666666667,	 sum(alpha*V) = 0.19453365401668,	 dev = -4.4408920985006e-14%,	 1-max(alpha1) = 0 at cell 0,	 min(alpha1) = -2.3294501442459e-14 at cell 999
ExecutionTime = 2.05 s  ClockTime = 2 s  timeStepTime = 0 s

Courant Number mean: 0.099999999999999 max: 0.099999999999997
Interface Courant Number mean: 0.00048333333333332 max: 0.099999999999997
deltaT = 0.0033333333333332
Time = 3.89

isoAdvection: After conservative bounding: min(alpha) = -2.2543426064799e-14, max(alpha) = 1 + -8.3266726846887e-15
t = 3.89,	 sum(alpha*V) = 0.19453365401668,	 dev = -6.6613381477509e-14%,	 1-max(alpha1) = 8.3266726846887e-15 at cell 0,	 min(alpha1) = -2.2543426064799e-14 at cell 999
ExecutionTime = 2.05 s  ClockTime = 2 s  timeStepTime = 0 s

Courant Number mean: 0.099999999999999 max: 0.099999999999997
Interface Courant Number mean: 0.00048333333333332 max: 0.099999999999997
deltaT = 0.0033333333333332
Time = 3.89333

isoAdvection: After conservative bounding: min(alpha) = -2.1746239548846e-14, max(alpha) = 1 + 0
t = 3.8933333333333,	 sum(alpha*V) = 0.19453365401668,	 dev = -1.1102230246252e-13%,	 1-max(alpha1) = 0 at cell 0,	 min(alpha1) = -2.1746239548846e-14 at cell 999
ExecutionTime = 2.06 s  ClockTime = 2 s  timeStepTime = 0.01 s

Courant Number mean: 0.099999999999999 max: 0.099999999999997
Interface Courant Number mean: 0.00051666666666665 max: 0.099999999999996
deltaT = 0.0033333333333332
Time = 3.89667

isoAdvection: After conservative bounding: min(alpha) = -2.0920022181529e-14, max(alpha) = 1 + -9.8809849191639e-15
t = 3.8966666666667,	 sum(alpha*V) = 0.19453365401668,	 dev = -6.6613381477509e-14%,	 1-max(alpha1) = 9.8809849191639e-15 at cell 0,	 min(alpha1) = -2.0920022181529e-14 at cell 999
ExecutionTime = 2.06 s  ClockTime = 2 s  timeStepTime = 0 s

Courant Number mean: 0.099999999999999 max: 0.099999999999997
Interface Courant Number mean: 0.00059999999999998 max: 0.099999999999997
deltaT = 0.0033333333333332
Time = 3.9

isoAdvection: After conservative bounding: min(alpha) = -2.0078868852086e-14, max(alpha) = 1 + 0
t = 3.9,	 sum(alpha*V) = 0.19453365401668,	 dev = -8.8817841970013e-14%,	 1-max(alpha1) = 0 at cell 0,	 min(alpha1) = -2.0078868852086e-14 at cell 999
ExecutionTime = 2.06 s  ClockTime = 2 s  timeStepTime = 0 s

Courant Number mean: 0.099999999999999 max: 0.099999999999997
Interface Courant Number mean: 0.00063333333333332 max: 0.099999999999997
deltaT = 0.0033333333333332
Time = 3.90333

isoAdvection: After conservative bounding: min(alpha) = -1.9234316031897e-14, max(alpha) = 1 + -1.3211653993039e-14
t = 3.9033333333333,	 sum(alpha*V) = 0.19453365401668,	 dev = -6.6613381477509e-14%,	 1-max(alpha1) = 1.3211653993039e-14 at cell 0,	 min(alpha1) = -1.9234316031897e-14 at cell 999
ExecutionTime = 2.06 s  ClockTime = 2 s  timeStepTime = 0 s

Courant Number mean: 0.099999999999999 max: 0.099999999999997
Interface Courant Number mean: 0.00061666666666665 max: 0.099999999999997
deltaT = 0.0033333333333332
Time = 3.90667

isoAdvection: After conservative bounding: min(alpha) = -1.8395713222478e-14, max(alpha) = 1 + -2.3869795029441e-14
t = 3.9066666666667,	 sum(alpha*V) = 0.19453365401668,	 dev = -6.6613381477509e-14%,	 1-max(alpha1) = 2.3869795029441e-14 at cell 0,	 min(alpha1) = -1.8395713222478e-14 at cell 999
ExecutionTime = 2.06 s  ClockTime = 2 s  timeStepTime = 0 s

Courant Number mean: 0.099999999999999 max: 0.099999999999997
Interface Courant Number mean: 0.00061666666666665 max: 0.099999999999996
deltaT = 0.0033333333333332
Time = 3.91

isoAdvection: After conservative bounding: min(alpha) = -1.7570545706728e-14, max(alpha) = 1 + 6.7124084068837e-13
t = 3.91,	 sum(alpha*V) = 0.19453365401668,	 dev = -1.7763568394003e-13%,	 1-max(alpha1) = -6.7124084068837e-13 at cell 0,	 min(alpha1) = -1.7570545706728e-14 at cell 999
ExecutionTime = 2.06 s  ClockTime = 2 s  timeStepTime = 0 s

Courant Number mean: 0.099999999999999 max: 0.099999999999997
Interface Courant Number mean: 0.00059999999999998 max: 0.099999999999997
deltaT = 0.0033333333333332
Time = 3.91333

isoAdvection: After conservative bounding: min(alpha) = -1.6764714626843e-14, max(alpha) = 1 + 5.2491344604277e-13
t = 3.9133333333333,	 sum(alpha*V) = 0.19453365401668,	 dev = -1.3322676295502e-13%,	 1-max(alpha1) = -5.2491344604277e-13 at cell 0,	 min(alpha1) = -1.6764714626843e-14 at cell 999
ExecutionTime = 2.06 s  ClockTime = 2 s  timeStepTime = 0 s

Courant Number mean: 0.099999999999999 max: 0.099999999999997
Interface Courant Number mean: 0.00056666666666665 max: 0.099999999999997
deltaT = 0.0033333333333332
Time = 3.91667

isoAdvection: After conservative bounding: min(alpha) = -1.5982779694681e-14, max(alpha) = 1 + 4.0656367161773e-13
t = 3.9166666666667,	 sum(alpha*V) = 0.19453365401668,	 dev = -6.6613381477509e-14%,	 1-max(alpha1) = -4.0656367161773e-13 at cell 0,	 min(alpha1) = -1.5982779694681e-14 at cell 999
ExecutionTime = 2.07 s  ClockTime = 2 s  timeStepTime = 0.0099999999999998 s

Courant Number mean: 0.099999999999999 max: 0.099999999999997
Interface Courant Number mean: 0.00056666666666665 max: 0.099999999999997
deltaT = 0.0033333333333332
Time = 3.92

isoAdvection: After conservative bounding: min(alpha) = -1.5228169205943e-14, max(alpha) = 1 + 3.1130653610489e-13
t = 3.92,	 sum(alpha*V) = 0.19453365401668,	 dev = -1.7763568394003e-13%,	 1-max(alpha1) = -3.1130653610489e-13 at cell 0,	 min(alpha1) = -1.5228169205943e-14 at cell 999
ExecutionTime = 2.07 s  ClockTime = 2 s  timeStepTime = 0 s

Courant Number mean: 0.099999999999999 max: 0.099999999999997
Interface Courant Number mean: 0.00061666666666665 max: 0.099999999999996
deltaT = 0.0033333333333332
Time = 3.92333

isoAdvection: After conservative bounding: min(alpha) = -1.4503361469015e-14, max(alpha) = 1 + 2.3425705819591e-13
t = 3.9233333333333,	 sum(alpha*V) = 0.19453365401668,	 dev = -4.4408920985006e-14%,	 1-max(alpha1) = -2.3425705819591e-13 at cell 0,	 min(alpha1) = -1.4503361469015e-14 at cell 999
ExecutionTime = 2.07 s  ClockTime = 2 s  timeStepTime = 0 s

Courant Number mean: 0.099999999999999 max: 0.099999999999997
Interface Courant Number mean: 0.00063333333333331 max: 0.099999999999997
deltaT = 0.0033333333333332
Time = 3.92667

isoAdvection: After conservative bounding: min(alpha) = -1.3810041264146e-14, max(alpha) = 1 + 1.9495516312418e-13
t = 3.9266666666667,	 sum(alpha*V) = 0.19453365401668,	 dev = -1.7763568394003e-13%,	 1-max(alpha1) = -1.9495516312418e-13 at cell 0,	 min(alpha1) = -1.3810041264146e-14 at cell 999
ExecutionTime = 2.07 s  ClockTime = 2 s  timeStepTime = 0 s

Courant Number mean: 0.099999999999999 max: 0.099999999999997
Interface Courant Number mean: 0.00058333333333332 max: 0.099999999999997
deltaT = 0.0033333333333332
Time = 3.93

isoAdvection: After conservative bounding: min(alpha) = -1.3149234511404e-14, max(alpha) = 1 + 1.4588330543575e-13
t = 3.93,	 sum(alpha*V) = 0.19453365401668,	 dev = -6.6613381477509e-14%,	 1-max(alpha1) = -1.4588330543575e-13 at cell 0,	 min(alpha1) = -1.3149234511404e-14 at cell 999
ExecutionTime = 2.07 s  ClockTime = 2 s  timeStepTime = 0 s

Courant Number mean: 0.099999999999999 max: 0.099999999999997
Interface Courant Number mean: 0.00058333333333332 max: 0.099999999999997
deltaT = 0.0033333333333332
Time = 3.93333

isoAdvection: After conservative bounding: min(alpha) = -1.252142393991e-14, max(alpha) = 1 + 1.1390888232654e-13
t = 3.9333333333333,	 sum(alpha*V) = 0.19453365401668,	 dev = -1.3322676295502e-13%,	 1-max(alpha1) = -1.1390888232654e-13 at cell 0,	 min(alpha1) = -1.252142393991e-14 at cell 999
ExecutionTime = 2.07 s  ClockTime = 2 s  timeStepTime = 0 s

Courant Number mean: 0.099999999999999 max: 0.099999999999997
Interface Courant Number mean: 0.00059999999999998 max: 0.099999999999996
deltaT = 0.0033333333333332
Time = 3.93667

isoAdvection: After conservative bounding: min(alpha) = -1.1926648210322e-14, max(alpha) = 1 + 8.4154905266587e-14
t = 3.9366666666667,	 sum(alpha*V) = 0.19453365401668,	 dev = -1.5543122344752e-13%,	 1-max(alpha1) = -8.4154905266587e-14 at cell 0,	 min(alpha1) = -1.1926648210322e-14 at cell 999
ExecutionTime = 2.07 s  ClockTime = 2 s  timeStepTime = 0 s

Courant Number mean: 0.099999999999999 max: 0.099999999999997
Interface Courant Number mean: 0.00061666666666665 max: 0.099999999999997
deltaT = 0.0033333333333332
Time = 3.94

isoAdvection: After conservative bounding: min(alpha) = -1.1391631885205e-14, max(alpha) = 1 + 5.6621374255883e-14
t = 3.94,	 sum(alpha*V) = 0.19453365401668,	 dev = -8.8817841970013e-14%,	 1-max(alpha1) = -5.6621374255883e-14 at cell 0,	 min(alpha1) = -1.1391631885205e-14 at cell 999
ExecutionTime = 2.08 s  ClockTime = 2 s  timeStepTime = 0.01 s

Courant Number mean: 0.099999999999999 max: 0.099999999999998
Interface Courant Number mean: 0.00063333333333332 max: 0.099999999999997
deltaT = 0.0033333333333332
Time = 3.94333

isoAdvection: After conservative bounding: min(alpha) = -1.114205558169e-14, max(alpha) = 1 + 3.1086244689504e-14
t = 3.9433333333333,	 sum(alpha*V) = 0.19453365401668,	 dev = -2.2204460492503e-14%,	 1-max(alpha1) = -3.1086244689504e-14 at cell 0,	 min(alpha1) = -1.114205558169e-14 at cell 999
ExecutionTime = 2.08 s  ClockTime = 2 s  timeStepTime = 0 s

Courant Number mean: 0.099999999999999 max: 0.099999999999997
Interface Courant Number mean: 0.00061666666666665 max: 0.099999999999997
deltaT = 0.0033333333333332
Time = 3.94667

isoAdvection: After conservative bounding: min(alpha) = -1.0882931276269e-14, max(alpha) = 1 + 7.105427357601e-15
t = 3.9466666666667,	 sum(alpha*V) = 0.19453365401668,	 dev = -1.7763568394003e-13%,	 1-max(alpha1) = -7.105427357601e-15 at cell 0,	 min(alpha1) = -1.0882931276269e-14 at cell 999
ExecutionTime = 2.08 s  ClockTime = 2 s  timeStepTime = 0 s

Courant Number mean: 0.099999999999998 max: 0.099999999999997
Interface Courant Number mean: 0.00059999999999998 max: 0.099999999999996
deltaT = 0.0033333333333332
Time = 3.95

isoAdvection: After conservative bounding: min(alpha) = -1.0617216362859e-14, max(alpha) = 1 + 0
t = 3.95,	 sum(alpha*V) = 0.19453365401668,	 dev = -6.6613381477509e-14%,	 1-max(alpha1) = 0 at cell 0,	 min(alpha1) = -1.0617216362859e-14 at cell 999
ExecutionTime = 2.08 s  ClockTime = 2 s  timeStepTime = 0 s

Courant Number mean: 0.099999999999999 max: 0.099999999999997
Interface Courant Number mean: 0.00054999999999998 max: 0.099999999999997
deltaT = 0.0033333333333332
Time = 3.95333

isoAdvection: After conservative bounding: min(alpha) = -1.0347506916337e-14, max(alpha) = 1 + 0
t = 3.9533333333333,	 sum(alpha*V) = 0.19453365401668,	 dev = -6.6613381477509e-14%,	 1-max(alpha1) = 0 at cell 0,	 min(alpha1) = -1.0347506916337e-14 at cell 999
ExecutionTime = 2.08 s  ClockTime = 2 s  timeStepTime = 0 s

Courant Number mean: 0.099999999999999 max: 0.099999999999998
Interface Courant Number mean: 0.00053333333333332 max: 0.099999999999997
deltaT = 0.0033333333333332
Time = 3.95667

isoAdvection: After conservative bounding: min(alpha) = -1.0076065211081e-14, max(alpha) = 1 + 0
t = 3.9566666666667,	 sum(alpha*V) = 0.19453365401668,	 dev = -2.4424906541753e-13%,	 1-max(alpha1) = 0 at cell 0,	 min(alpha1) = -1.0076065211081e-14 at cell 999
ExecutionTime = 2.08 s  ClockTime = 2 s  timeStepTime = 0 s

Courant Number mean: 0.099999999999999 max: 0.099999999999997
Interface Courant Number mean: 0.00051666666666665 max: 0.099999999999997
deltaT = 0.0033333333333332
Time = 3.96

isoAdvection: After conservative bounding: min(alpha) = -9.8048469346202e-15, max(alpha) = 1 + -1.1102230246252e-16
t = 3.96,	 sum(alpha*V) = 0.19453365401668,	 dev = -1.7763568394003e-13%,	 1-max(alpha1) = 1.1102230246252e-16 at cell 0,	 min(alpha1) = -9.8048469346202e-15 at cell 999
ExecutionTime = 2.08 s  ClockTime = 2 s  timeStepTime = 0 s

Courant Number mean: 0.099999999999998 max: 0.099999999999997
Interface Courant Number mean: 0.00054999999999998 max: 0.099999999999996
deltaT = 0.0033333333333332
Time = 3.96333

isoAdvection: After conservative bounding: min(alpha) = -9.5355277227622e-15, max(alpha) = 1 + -1.9317880628478e-14
t = 3.9633333333333,	 sum(alpha*V) = 0.19453365401668,	 dev = -6.6613381477509e-14%,	 1-max(alpha1) = 1.9317880628478e-14 at cell 0,	 min(alpha1) = -9.5355277227622e-15 at cell 999
ExecutionTime = 2.09 s  ClockTime = 2 s  timeStepTime = 0.0099999999999998 s

Courant Number mean: 0.099999999999999 max: 0.099999999999997
Interface Courant Number mean: 0.00058333333333332 max: 0.099999999999997
deltaT = 0.0033333333333332
Time = 3.96667

isoAdvection: After conservative bounding: min(alpha) = -9.2695287362131e-15, max(alpha) = 1 + -2.6312285683616e-14
t = 3.9666666666667,	 sum(alpha*V) = 0.19453365401668,	 dev = -1.3322676295502e-13%,	 1-max(alpha1) = 2.6312285683616e-14 at cell 0,	 min(alpha1) = -9.2695287362131e-15 at cell 999
ExecutionTime = 2.09 s  ClockTime = 2 s  timeStepTime = 0 s

Courant Number mean: 0.099999999999999 max: 0.099999999999998
Interface Courant Number mean: 0.00059999999999998 max: 0.099999999999997
deltaT = 0.0033333333333332
Time = 3.97

isoAdvection: After conservative bounding: min(alpha) = -9.008041075788e-15, max(alpha) = 1 + -2.3647750424516e-14
t = 3.97,	 sum(alpha*V) = 0.19453365401668,	 dev = -1.1102230246252e-13%,	 1-max(alpha1) = 2.3647750424516e-14 at cell 0,	 min(alpha1) = -9.008041075788e-15 at cell 999
ExecutionTime = 2.09 s  ClockTime = 2 s  timeStepTime = 0 s

Courant Number mean: 0.099999999999999 max: 0.099999999999997
Interface Courant Number mean: 0.00054999999999998 max: 0.099999999999997
deltaT = 0.0033333333333332
Time = 3.97333

isoAdvection: After conservative bounding: min(alpha) = -8.7520488963444e-15, max(alpha) = 1 + 0
t = 3.9733333333333,	 sum(alpha*V) = 0.19453365401668,	 dev = -8.8817841970013e-14%,	 1-max(alpha1) = 0 at cell 0,	 min(alpha1) = -8.7520488963444e-15 at cell 999
ExecutionTime = 2.09 s  ClockTime = 2 s  timeStepTime = 0 s

Courant Number mean: 0.099999999999998 max: 0.099999999999996
Interface Courant Number mean: 0.00056666666666664 max: 0.099999999999996
deltaT = 0.0033333333333332
Time = 3.97667

isoAdvection: After conservative bounding: min(alpha) = -8.502351130748e-15, max(alpha) = 1 + 0
t = 3.9766666666667,	 sum(alpha*V) = 0.19453365401668,	 dev = -1.3322676295502e-13%,	 1-max(alpha1) = 0 at cell 0,	 min(alpha1) = -8.502351130748e-15 at cell 999
ExecutionTime = 2.09 s  ClockTime = 2 s  timeStepTime = 0 s

Courant Number mean: 0.099999999999999 max: 0.099999999999997
Interface Courant Number mean: 0.00056666666666665 max: 0.099999999999997
deltaT = 0.0033333333333332
Time = 3.98

isoAdvection: After conservative bounding: min(alpha) = -1.1472896706739e-13, max(alpha) = 1 + -3.7747582837255e-14
t = 3.98,	 sum(alpha*V) = 0.19453365401668,	 dev = -1.9984014443253e-13%,	 1-max(alpha1) = 3.7747582837255e-14 at cell 0,	 min(alpha1) = -1.1472896706739e-13 at cell 999
ExecutionTime = 2.09 s  ClockTime = 2 s  timeStepTime = 0 s

Courant Number mean: 0.1 max: 0.099999999999998
Interface Courant Number mean: 0.00053333333333332 max: 0.099999999999998
deltaT = 0.0033333333333332
Time = 3.98333

isoAdvection: After conservative bounding: min(alpha) = -1.0337272027928e-13, max(alpha) = 1 + -5.6621374255883e-14
t = 3.9833333333333,	 sum(alpha*V) = 0.19453365401668,	 dev = -8.8817841970013e-14%,	 1-max(alpha1) = 5.6621374255883e-14 at cell 0,	 min(alpha1) = -1.0337272027928e-13 at cell 999
ExecutionTime = 2.09 s  ClockTime = 2 s  timeStepTime = 0 s

Courant Number mean: 0.099999999999999 max: 0.099999999999997
Interface Courant Number mean: 0.00051666666666665 max: 0.099999999999997
deltaT = 0.0033333333333331
Time = 3.98667

isoAdvection: After conservative bounding: min(alpha) = -9.3170470436857e-14, max(alpha) = 1 + 0
t = 3.9866666666667,	 sum(alpha*V) = 0.19453365401668,	 dev = -1.5543122344752e-13%,	 1-max(alpha1) = 0 at cell 0,	 min(alpha1) = -9.3170470436857e-14 at cell 999
ExecutionTime = 2.09 s  ClockTime = 2 s  timeStepTime = 0 s

Courant Number mean: 0.099999999999998 max: 0.099999999999996
Interface Courant Number mean: 0.00049999999999998 max: 0.099999999999995
deltaT = 0.0033333333333332
Time = 3.99

isoAdvection: After conservative bounding: min(alpha) = -8.4008384462031e-14, max(alpha) = 1 + -1.2101430968414e-14
t = 3.99,	 sum(alpha*V) = 0.19453365401668,	 dev = -1.3322676295502e-13%,	 1-max(alpha1) = 1.2101430968414e-14 at cell 0,	 min(alpha1) = -8.4008384462031e-14 at cell 999
ExecutionTime = 2.09 s  ClockTime = 2 s  timeStepTime = 0 s

Courant Number mean: 0.099999999999999 max: 0.099999999999997
Interface Courant Number mean: 0.00048333333333332 max: 0.099999999999997
deltaT = 0.0033333333333333
Time = 3.99333

isoAdvection: After conservative bounding: min(alpha) = -7.5780107797446e-14, max(alpha) = 1 + 4.8849813083507e-15
t = 3.9933333333333,	 sum(alpha*V) = 0.19453365401668,	 dev = 6.6613381477509e-14%,	 1-max(alpha1) = -4.8849813083507e-15 at cell 0,	 min(alpha1) = -7.5780107797446e-14 at cell 999
ExecutionTime = 2.09 s  ClockTime = 2 s  timeStepTime = 0 s

Courant Number mean: 0.1 max: 0.099999999999999
Interface Courant Number mean: 0.00055 max: 0.099999999999999
deltaT = 0.0033333333333332
Time = 3.99667

isoAdvection: After conservative bounding: min(alpha) = -6.8393427497339e-14, max(alpha) = 1 + -1.6653345369377e-15
t = 3.9966666666667,	 sum(alpha*V) = 0.19453365401668,	 dev = -1.1102230246252e-13%,	 1-max(alpha1) = 1.6653345369377e-15 at cell 0,	 min(alpha1) = -6.8393427497339e-14 at cell 999
ExecutionTime = 2.1 s  ClockTime = 2 s  timeStepTime = 0.01 s

Courant Number mean: 0.099999999999999 max: 0.099999999999997
Interface Courant Number mean: 0.00059999999999998 max: 0.099999999999997
deltaT = 0.003333333333333
Time = 4

isoAdvection: After conservative bounding: min(alpha) = -6.1766146011943e-14, max(alpha) = 1 + 0
t = 4,	 sum(alpha*V) = 0.19453365401668,	 dev = -1.1102230246252e-13%,	 1-max(alpha1) = 0 at cell 0,	 min(alpha1) = -6.1766146011943e-14 at cell 999
ExecutionTime = 2.1 s  ClockTime = 2 s  timeStepTime = 0 s

End

Finalising parallel run
