/*---------------------------------------------------------------------------*\
| =========                 |                                                 |
| \\      /  F ield         | OpenFOAM: The Open Source CFD Toolbox           |
|  \\    /   O peration     | Version:  v1812                                 |
|   \\  /    A nd           | Web:      www.OpenFOAM.com                      |
|    \\/     M anipulation  |                                                 |
\*---------------------------------------------------------------------------*/
Build  : 945f446c-20210216 OPENFOAM=1812
Arch   : "LSB;label=32;scalar=64"
Exec   : advectorVoF
Date   : May 02 2021
Time   : 18:40:49
Host   : henning-AB350M-HD3
PID    : 7306
I/O    : uncollated
Case   : /media/henning/ssd1linux/libsAndApps/release/TwoPhaseFlow/testsuite/advection/test-discUniFlow
nProcs : 1
trapFpe: Floating point exception trapping enabled (FOAM_SIGFPE).
fileModificationChecking : Monitoring run-time modified files using timeStampMaster (fileModificationSkew 10)
allowSystemOperations : Allowing user-supplied system call operations

// * * * * * * * * * * * * * * * * * * * * * * * * * * * * * * * * * * * * * //
Create time

--> FOAM Warning : 
    From function static Foam::IOstreamOption::compressionType Foam::IOstreamOption::compressionEnum(const Foam::word&)
    in file db/IOstreams/IOstreams/IOstreamOption.C at line 86
    Unknown compression specifier 'compressed', assuming no compression
Create mesh for time = 0

Reading field U

Reading/calculating face flux field phi

Reading transportProperties

Selecting incompressible transport model Newtonian
Selecting incompressible transport model Newtonian
Reading field alpha1

sum(alpha*V) = 0.19453365401668, 1-max(alpha1) = -8.8817841970013e-16	 min(alpha1) = 0
Selecting advectionSchemes: isoAdvection
Selecting reconstructionScheme: plicRDF
Courant Number mean: 0.029999999999999 max: 0.03
Interface Courant Number mean: 0.00014000000000001 max: 0.03
deltaT = 0.0033333333333333

Starting time loop

reverseTime 0
period 0
Courant Number mean: 0.099999999999995 max: 0.1
Interface Courant Number mean: 0.00046666666666669 max: 0.1
deltaT = 0.0033333333333333
Time = 0.00333333

isoAdvection: After conservative bounding: min(alpha) = 0, max(alpha) = 1 + 8.8817841970013e-16
t = 0.0033333333333333,	 sum(alpha*V) = 0.19453365401668,	 dev = -2.2204460492503e-14%,	 1-max(alpha1) = -8.8817841970013e-16 at cell 612,	 min(alpha1) = 0 at cell 1
ExecutionTime = 0.13 s  ClockTime = 0 s  timeStepTime = 0.01 s

Courant Number mean: 0.099999999999995 max: 0.1
Interface Courant Number mean: 0.00046666666666669 max: 0.1
deltaT = 0.0033333333333333
Time = 0.00666667

isoAdvection: After conservative bounding: min(alpha) = 0, max(alpha) = 1 + 8.8817841970013e-16
t = 0.0066666666666667,	 sum(alpha*V) = 0.19453365401668,	 dev = 3.3306690738755e-14%,	 1-max(alpha1) = -8.8817841970013e-16 at cell 612,	 min(alpha1) = 0 at cell 1
ExecutionTime = 0.14 s  ClockTime = 0 s  timeStepTime = 0.01 s

Courant Number mean: 0.099999999999995 max: 0.1
Interface Courant Number mean: 0.00055000000000003 max: 0.1
deltaT = 0.0033333333333333
Time = 0.01

isoAdvection: After conservative bounding: min(alpha) = 0, max(alpha) = 1 + 8.8817841970013e-16
t = 0.01,	 sum(alpha*V) = 0.19453365401668,	 dev = 4.4408920985006e-14%,	 1-max(alpha1) = -8.8817841970013e-16 at cell 612,	 min(alpha1) = 0 at cell 1
ExecutionTime = 0.14 s  ClockTime = 0 s  timeStepTime = 0 s

Courant Number mean: 0.099999999999995 max: 0.1
Interface Courant Number mean: 0.0005666666666667 max: 0.1
deltaT = 0.0033333333333333
Time = 0.0133333

isoAdvection: After conservative bounding: min(alpha) = 0, max(alpha) = 1 + 8.8817841970013e-16
t = 0.013333333333333,	 sum(alpha*V) = 0.19453365401668,	 dev = 1.1102230246252e-14%,	 1-max(alpha1) = -8.8817841970013e-16 at cell 612,	 min(alpha1) = 0 at cell 1
ExecutionTime = 0.14 s  ClockTime = 0 s  timeStepTime = 0 s

Courant Number mean: 0.099999999999995 max: 0.1
Interface Courant Number mean: 0.0006166666666667 max: 0.1
deltaT = 0.0033333333333333
Time = 0.0166667

isoAdvection: After conservative bounding: min(alpha) = 0, max(alpha) = 1 + 8.8817841970013e-16
t = 0.016666666666667,	 sum(alpha*V) = 0.19453365401668,	 dev = 0%,	 1-max(alpha1) = -8.8817841970013e-16 at cell 612,	 min(alpha1) = 0 at cell 1
ExecutionTime = 0.14 s  ClockTime = 0 s  timeStepTime = 0 s

Courant Number mean: 0.099999999999995 max: 0.1
Interface Courant Number mean: 0.00060000000000003 max: 0.1
deltaT = 0.0033333333333333
Time = 0.02

isoAdvection: After conservative bounding: min(alpha) = 0, max(alpha) = 1 + 8.8817841970013e-16
t = 0.02,	 sum(alpha*V) = 0.19453365401668,	 dev = 0%,	 1-max(alpha1) = -8.8817841970013e-16 at cell 612,	 min(alpha1) = 0 at cell 1
ExecutionTime = 0.14 s  ClockTime = 0 s  timeStepTime = 0 s

Courant Number mean: 0.099999999999995 max: 0.1
Interface Courant Number mean: 0.00060000000000003 max: 0.1
deltaT = 0.0033333333333333
Time = 0.0233333

isoAdvection: After conservative bounding: min(alpha) = 0, max(alpha) = 1 + 8.8817841970013e-16
t = 0.023333333333333,	 sum(alpha*V) = 0.19453365401668,	 dev = 3.3306690738755e-14%,	 1-max(alpha1) = -8.8817841970013e-16 at cell 612,	 min(alpha1) = 0 at cell 1
ExecutionTime = 0.14 s  ClockTime = 0 s  timeStepTime = 0 s

Courant Number mean: 0.099999999999995 max: 0.1
Interface Courant Number mean: 0.0005666666666667 max: 0.1
deltaT = 0.0033333333333333
Time = 0.0266667

isoAdvection: After conservative bounding: min(alpha) = 0, max(alpha) = 1 + 8.8817841970013e-16
t = 0.026666666666667,	 sum(alpha*V) = 0.19453365401668,	 dev = 4.4408920985006e-14%,	 1-max(alpha1) = -8.8817841970013e-16 at cell 612,	 min(alpha1) = 0 at cell 1
ExecutionTime = 0.14 s  ClockTime = 0 s  timeStepTime = 0 s

Courant Number mean: 0.099999999999995 max: 0.1
Interface Courant Number mean: 0.0005666666666667 max: 0.1
deltaT = 0.0033333333333333
Time = 0.03

isoAdvection: After conservative bounding: min(alpha) = -1.6155871338926e-27, max(alpha) = 1 + 8.8817841970013e-16
t = 0.03,	 sum(alpha*V) = 0.19453365401668,	 dev = 3.3306690738755e-14%,	 1-max(alpha1) = -8.8817841970013e-16 at cell 612,	 min(alpha1) = -1.6155871338926e-27 at cell 507
ExecutionTime = 0.14 s  ClockTime = 0 s  timeStepTime = 0 s

Courant Number mean: 0.099999999999995 max: 0.1
Interface Courant Number mean: 0.0005666666666667 max: 0.1
deltaT = 0.0033333333333333
Time = 0.0333333

isoAdvection: After conservative bounding: min(alpha) = -1.6155871338926e-27, max(alpha) = 1 + 8.8817841970013e-16
t = 0.033333333333333,	 sum(alpha*V) = 0.19453365401668,	 dev = 5.5511151231258e-14%,	 1-max(alpha1) = -8.8817841970013e-16 at cell 612,	 min(alpha1) = -1.6155871338926e-27 at cell 507
ExecutionTime = 0.15 s  ClockTime = 0 s  timeStepTime = 0.01 s

Courant Number mean: 0.099999999999995 max: 0.1
Interface Courant Number mean: 0.0005666666666667 max: 0.1
deltaT = 0.0033333333333333
Time = 0.0366667

isoAdvection: After conservative bounding: min(alpha) = -1.6155871338926e-27, max(alpha) = 1 + 8.8817841970013e-16
t = 0.036666666666667,	 sum(alpha*V) = 0.19453365401668,	 dev = 4.4408920985006e-14%,	 1-max(alpha1) = -8.8817841970013e-16 at cell 612,	 min(alpha1) = -1.6155871338926e-27 at cell 507
ExecutionTime = 0.15 s  ClockTime = 0 s  timeStepTime = 0 s

Courant Number mean: 0.099999999999995 max: 0.1
Interface Courant Number mean: 0.0005666666666667 max: 0.1
deltaT = 0.0033333333333333
Time = 0.04

isoAdvection: After conservative bounding: min(alpha) = -1.6155871338926e-27, max(alpha) = 1 + 8.8817841970013e-16
t = 0.04,	 sum(alpha*V) = 0.19453365401668,	 dev = 6.6613381477509e-14%,	 1-max(alpha1) = -8.8817841970013e-16 at cell 612,	 min(alpha1) = -1.6155871338926e-27 at cell 507
ExecutionTime = 0.15 s  ClockTime = 0 s  timeStepTime = 0 s

Courant Number mean: 0.099999999999995 max: 0.1
Interface Courant Number mean: 0.00058333333333337 max: 0.1
deltaT = 0.0033333333333333
Time = 0.0433333

isoAdvection: After conservative bounding: min(alpha) = -1.6155871338926e-27, max(alpha) = 1 + 8.8817841970013e-16
t = 0.043333333333333,	 sum(alpha*V) = 0.19453365401668,	 dev = 6.6613381477509e-14%,	 1-max(alpha1) = -8.8817841970013e-16 at cell 612,	 min(alpha1) = -1.6155871338926e-27 at cell 507
ExecutionTime = 0.15 s  ClockTime = 0 s  timeStepTime = 0 s

Courant Number mean: 0.099999999999995 max: 0.1
Interface Courant Number mean: 0.0006166666666667 max: 0.1
deltaT = 0.0033333333333333
Time = 0.0466667

isoAdvection: After conservative bounding: min(alpha) = -1.6155871338926e-27, max(alpha) = 1 + 8.8817841970013e-16
t = 0.046666666666667,	 sum(alpha*V) = 0.19453365401668,	 dev = 5.5511151231258e-14%,	 1-max(alpha1) = -8.8817841970013e-16 at cell 612,	 min(alpha1) = -1.6155871338926e-27 at cell 507
ExecutionTime = 0.15 s  ClockTime = 0 s  timeStepTime = 0 s

Courant Number mean: 0.099999999999995 max: 0.1
Interface Courant Number mean: 0.00058333333333337 max: 0.1
deltaT = 0.0033333333333333
Time = 0.05

isoAdvection: After conservative bounding: min(alpha) = -2.7105054312138e-20, max(alpha) = 1 + 8.8817841970013e-16
t = 0.05,	 sum(alpha*V) = 0.19453365401668,	 dev = 6.6613381477509e-14%,	 1-max(alpha1) = -8.8817841970013e-16 at cell 612,	 min(alpha1) = -2.7105054312138e-20 at cell 1005
ExecutionTime = 0.15 s  ClockTime = 0 s  timeStepTime = 0 s

Courant Number mean: 0.099999999999995 max: 0.1
Interface Courant Number mean: 0.0005666666666667 max: 0.1
deltaT = 0.0033333333333333
Time = 0.0533333

isoAdvection: After conservative bounding: min(alpha) = -2.6201553363379e-20, max(alpha) = 1 + 8.8817841970013e-16
t = 0.053333333333333,	 sum(alpha*V) = 0.19453365401668,	 dev = 5.5511151231258e-14%,	 1-max(alpha1) = -8.8817841970013e-16 at cell 612,	 min(alpha1) = -2.6201553363379e-20 at cell 1005
ExecutionTime = 0.15 s  ClockTime = 0 s  timeStepTime = 0 s

Courant Number mean: 0.099999999999995 max: 0.1
Interface Courant Number mean: 0.00058333333333337 max: 0.1
deltaT = 0.0033333333333333
Time = 0.0566667

isoAdvection: After conservative bounding: min(alpha) = -2.5328169084105e-20, max(alpha) = 1 + 8.8817841970013e-16
t = 0.056666666666667,	 sum(alpha*V) = 0.19453365401668,	 dev = 4.4408920985006e-14%,	 1-max(alpha1) = -8.8817841970013e-16 at cell 612,	 min(alpha1) = -2.5328169084105e-20 at cell 1005
ExecutionTime = 0.15 s  ClockTime = 0 s  timeStepTime = 0 s

Courant Number mean: 0.099999999999995 max: 0.1
Interface Courant Number mean: 0.0006166666666667 max: 0.1
deltaT = 0.0033333333333333
Time = 0.06

isoAdvection: After conservative bounding: min(alpha) = -2.4483897586269e-20, max(alpha) = 1 + 8.8817841970013e-16
t = 0.06,	 sum(alpha*V) = 0.19453365401668,	 dev = 5.5511151231258e-14%,	 1-max(alpha1) = -8.8817841970013e-16 at cell 612,	 min(alpha1) = -2.4483897586269e-20 at cell 1005
ExecutionTime = 0.15 s  ClockTime = 0 s  timeStepTime = 0 s

Courant Number mean: 0.099999999999995 max: 0.1
Interface Courant Number mean: 0.00058333333333337 max: 0.1
deltaT = 0.0033333333333333
Time = 0.0633333

isoAdvection: After conservative bounding: min(alpha) = -2.3667768444728e-20, max(alpha) = 1 + 8.8817841970013e-16
t = 0.063333333333333,	 sum(alpha*V) = 0.19453365401668,	 dev = 5.5511151231258e-14%,	 1-max(alpha1) = -8.8817841970013e-16 at cell 612,	 min(alpha1) = -2.3667768444728e-20 at cell 1005
ExecutionTime = 0.16 s  ClockTime = 0 s  timeStepTime = 0.01 s

Courant Number mean: 0.099999999999995 max: 0.1
Interface Courant Number mean: 0.00055000000000003 max: 0.1
deltaT = 0.0033333333333333
Time = 0.0666667

isoAdvection: After conservative bounding: min(alpha) = -2.2878843581818e-20, max(alpha) = 1 + 8.8817841970013e-16
t = 0.066666666666667,	 sum(alpha*V) = 0.19453365401668,	 dev = 8.8817841970013e-14%,	 1-max(alpha1) = -8.8817841970013e-16 at cell 612,	 min(alpha1) = -2.2878843581818e-20 at cell 1005
ExecutionTime = 0.16 s  ClockTime = 0 s  timeStepTime = 0 s

Courant Number mean: 0.099999999999995 max: 0.1
Interface Courant Number mean: 0.0005666666666667 max: 0.1
deltaT = 0.0033333333333333
Time = 0.07

isoAdvection: After conservative bounding: min(alpha) = -2.2116216189102e-20, max(alpha) = 1 + 8.8817841970013e-16
t = 0.07,	 sum(alpha*V) = 0.19453365401668,	 dev = 4.4408920985006e-14%,	 1-max(alpha1) = -8.8817841970013e-16 at cell 612,	 min(alpha1) = -2.2116216189102e-20 at cell 1005
ExecutionTime = 0.16 s  ClockTime = 0 s  timeStepTime = 0 s

Courant Number mean: 0.099999999999995 max: 0.1
Interface Courant Number mean: 0.0005666666666667 max: 0.1
deltaT = 0.0033333333333333
Time = 0.0733333

isoAdvection: After conservative bounding: min(alpha) = -2.1379009685063e-20, max(alpha) = 1 + 8.8817841970013e-16
t = 0.073333333333333,	 sum(alpha*V) = 0.19453365401668,	 dev = 4.4408920985006e-14%,	 1-max(alpha1) = -8.8817841970013e-16 at cell 612,	 min(alpha1) = -2.1379009685063e-20 at cell 1005
ExecutionTime = 0.16 s  ClockTime = 0 s  timeStepTime = 0 s

Courant Number mean: 0.099999999999995 max: 0.1
Interface Courant Number mean: 0.00058333333333337 max: 0.1
deltaT = 0.0033333333333333
Time = 0.0766667

isoAdvection: After conservative bounding: min(alpha) = -2.0666376707543e-20, max(alpha) = 1 + 8.8817841970013e-16
t = 0.076666666666667,	 sum(alpha*V) = 0.19453365401668,	 dev = 6.6613381477509e-14%,	 1-max(alpha1) = -8.8817841970013e-16 at cell 612,	 min(alpha1) = -2.0666376707543e-20 at cell 1005
ExecutionTime = 0.16 s  ClockTime = 0 s  timeStepTime = 0 s

Courant Number mean: 0.099999999999995 max: 0.1
Interface Courant Number mean: 0.00058333333333337 max: 0.1
deltaT = 0.0033333333333333
Time = 0.08

isoAdvection: After conservative bounding: min(alpha) = -1.9977498139768e-20, max(alpha) = 1 + 0
t = 0.08,	 sum(alpha*V) = 0.19453365401668,	 dev = 9.9920072216264e-14%,	 1-max(alpha1) = 0 at cell 611,	 min(alpha1) = -1.9977498139768e-20 at cell 1005
ExecutionTime = 0.16 s  ClockTime = 0 s  timeStepTime = 0 s

Courant Number mean: 0.099999999999995 max: 0.1
Interface Courant Number mean: 0.00058333333333337 max: 0.1
deltaT = 0.0033333333333333
Time = 0.0833333

isoAdvection: After conservative bounding: min(alpha) = -1.9311582168831e-20, max(alpha) = 1 + 0
t = 0.083333333333333,	 sum(alpha*V) = 0.19453365401668,	 dev = 9.9920072216264e-14%,	 1-max(alpha1) = 0 at cell 611,	 min(alpha1) = -1.9311582168831e-20 at cell 1005
ExecutionTime = 0.16 s  ClockTime = 0 s  timeStepTime = 0 s

Courant Number mean: 0.099999999999995 max: 0.1
Interface Courant Number mean: 0.0006166666666667 max: 0.1
deltaT = 0.0033333333333333
Time = 0.0866667

isoAdvection: After conservative bounding: min(alpha) = -1.8667863375565e-20, max(alpha) = 1 + 0
t = 0.086666666666667,	 sum(alpha*V) = 0.19453365401668,	 dev = 5.5511151231258e-14%,	 1-max(alpha1) = 0 at cell 611,	 min(alpha1) = -1.8667863375565e-20 at cell 1005
ExecutionTime = 0.16 s  ClockTime = 0 s  timeStepTime = 0 s

Courant Number mean: 0.099999999999995 max: 0.1
Interface Courant Number mean: 0.00060000000000003 max: 0.1
deltaT = 0.0033333333333333
Time = 0.09

isoAdvection: After conservative bounding: min(alpha) = -1.8045601854754e-20, max(alpha) = 1 + 0
t = 0.09,	 sum(alpha*V) = 0.19453365401668,	 dev = 8.8817841970013e-14%,	 1-max(alpha1) = 0 at cell 611,	 min(alpha1) = -1.8045601854754e-20 at cell 1005
ExecutionTime = 0.17 s  ClockTime = 0 s  timeStepTime = 0.01 s

Courant Number mean: 0.099999999999995 max: 0.1
Interface Courant Number mean: 0.00058333333333337 max: 0.1
deltaT = 0.0033333333333333
Time = 0.0933333

isoAdvection: After conservative bounding: min(alpha) = -4.512955634195e-13, max(alpha) = 1 + 0
t = 0.093333333333333,	 sum(alpha*V) = 0.19453365401668,	 dev = 8.8817841970013e-14%,	 1-max(alpha1) = 0 at cell 709,	 min(alpha1) = -4.512955634195e-13 at cell 510
ExecutionTime = 0.17 s  ClockTime = 0 s  timeStepTime = 0 s

Courant Number mean: 0.099999999999995 max: 0.1
Interface Courant Number mean: 0.00053333333333336 max: 0.1
deltaT = 0.0033333333333333
Time = 0.0966667

isoAdvection: After conservative bounding: min(alpha) = -3.6103581929625e-13, max(alpha) = 1 + 0
t = 0.096666666666667,	 sum(alpha*V) = 0.19453365401668,	 dev = 6.6613381477509e-14%,	 1-max(alpha1) = 0 at cell 709,	 min(alpha1) = -3.6103581929625e-13 at cell 510
ExecutionTime = 0.17 s  ClockTime = 0 s  timeStepTime = 0 s

Courant Number mean: 0.099999999999995 max: 0.1
Interface Courant Number mean: 0.00050000000000003 max: 0.1
deltaT = 0.0033333333333333
Time = 0.1

isoAdvection: After conservative bounding: min(alpha) = -2.8882807025694e-13, max(alpha) = 1 + 0
t = 0.1,	 sum(alpha*V) = 0.19453365401668,	 dev = 8.8817841970013e-14%,	 1-max(alpha1) = 0 at cell 710,	 min(alpha1) = -2.8882807025694e-13 at cell 510
ExecutionTime = 0.17 s  ClockTime = 0 s  timeStepTime = 0 s

Courant Number mean: 0.099999999999995 max: 0.1
Interface Courant Number mean: 0.00046666666666669 max: 0.1
deltaT = 0.0033333333333333
Time = 0.103333

isoAdvection: After conservative bounding: min(alpha) = -2.5994353120622e-13, max(alpha) = 1 + 4.0190073491431e-14
t = 0.10333333333333,	 sum(alpha*V) = 0.19453365401668,	 dev = 8.8817841970013e-14%,	 1-max(alpha1) = -4.0190073491431e-14 at cell 1315,	 min(alpha1) = -2.5994353120622e-13 at cell 510
ExecutionTime = 0.17 s  ClockTime = 0 s  timeStepTime = 0 s

Courant Number mean: 0.099999999999995 max: 0.1
Interface Courant Number mean: 0.00046666666666669 max: 0.1
deltaT = 0.0033333333333333
Time = 0.106667

isoAdvection: After conservative bounding: min(alpha) = -2.1662095337656e-13, max(alpha) = 1 + 3.619327060278e-14
t = 0.10666666666667,	 sum(alpha*V) = 0.19453365401668,	 dev = 8.8817841970013e-14%,	 1-max(alpha1) = -3.619327060278e-14 at cell 1315,	 min(alpha1) = -2.1662095337656e-13 at cell 510
ExecutionTime = 0.17 s  ClockTime = 0 s  timeStepTime = 0 s

Courant Number mean: 0.099999999999995 max: 0.1
Interface Courant Number mean: 0.00055000000000003 max: 0.1
deltaT = 0.0033333333333333
Time = 0.11

isoAdvection: After conservative bounding: min(alpha) = -1.8051800918954e-13, max(alpha) = 1 + 3.264055692398e-14
t = 0.11,	 sum(alpha*V) = 0.19453365401668,	 dev = 5.5511151231258e-14%,	 1-max(alpha1) = -3.264055692398e-14 at cell 1315,	 min(alpha1) = -1.8051800918954e-13 at cell 510
ExecutionTime = 0.17 s  ClockTime = 0 s  timeStepTime = 0 s

Courant Number mean: 0.099999999999995 max: 0.1
Interface Courant Number mean: 0.0005666666666667 max: 0.1
deltaT = 0.0033333333333333
Time = 0.113333

isoAdvection: After conservative bounding: min(alpha) = -1.624660664501e-13, max(alpha) = 1 + 2.9309887850104e-14
t = 0.11333333333333,	 sum(alpha*V) = 0.19453365401668,	 dev = 8.8817841970013e-14%,	 1-max(alpha1) = -2.9309887850104e-14 at cell 1315,	 min(alpha1) = -1.624660664501e-13 at cell 510
ExecutionTime = 0.17 s  ClockTime = 0 s  timeStepTime = 0 s

Courant Number mean: 0.099999999999995 max: 0.1
Interface Courant Number mean: 0.0006166666666667 max: 0.1
deltaT = 0.0033333333333333
Time = 0.116667

isoAdvection: After conservative bounding: min(alpha) = -1.4622080773666e-13, max(alpha) = 1 + 2.6423307986079e-14
t = 0.11666666666667,	 sum(alpha*V) = 0.19453365401668,	 dev = 8.8817841970013e-14%,	 1-max(alpha1) = -2.6423307986079e-14 at cell 1315,	 min(alpha1) = -1.4622080773666e-13 at cell 510
ExecutionTime = 0.18 s  ClockTime = 0 s  timeStepTime = 0.01 s

Courant Number mean: 0.099999999999995 max: 0.1
Interface Courant Number mean: 0.0006166666666667 max: 0.1
deltaT = 0.0033333333333333
Time = 0.12

isoAdvection: After conservative bounding: min(alpha) = -1.3159887480944e-13, max(alpha) = 1 + 2.3758772726978e-14
t = 0.12,	 sum(alpha*V) = 0.19453365401668,	 dev = 5.5511151231258e-14%,	 1-max(alpha1) = -2.3758772726978e-14 at cell 1315,	 min(alpha1) = -1.3159887480944e-13 at cell 510
ExecutionTime = 0.18 s  ClockTime = 0 s  timeStepTime = 0 s

Courant Number mean: 0.099999999999995 max: 0.1
Interface Courant Number mean: 0.00060000000000003 max: 0.1
deltaT = 0.0033333333333333
Time = 0.123333

isoAdvection: After conservative bounding: min(alpha) = -1.1843838516983e-13, max(alpha) = 1 + 2.1316282072803e-14
t = 0.12333333333333,	 sum(alpha*V) = 0.19453365401668,	 dev = 6.6613381477509e-14%,	 1-max(alpha1) = -2.1316282072803e-14 at cell 1315,	 min(alpha1) = -1.1843838516983e-13 at cell 510
ExecutionTime = 0.18 s  ClockTime = 0 s  timeStepTime = 0 s

Courant Number mean: 0.099999999999995 max: 0.1
Interface Courant Number mean: 0.0005666666666667 max: 0.1
deltaT = 0.0033333333333333
Time = 0.126667

isoAdvection: After conservative bounding: min(alpha) = -1.0659379960092e-13, max(alpha) = 1 + 1.9095836023553e-14
t = 0.12666666666667,	 sum(alpha*V) = 0.19453365401668,	 dev = 5.5511151231258e-14%,	 1-max(alpha1) = -1.9095836023553e-14 at cell 1315,	 min(alpha1) = -1.0659379960092e-13 at cell 510
ExecutionTime = 0.18 s  ClockTime = 0 s  timeStepTime = 0 s

Courant Number mean: 0.099999999999995 max: 0.1
Interface Courant Number mean: 0.0005666666666667 max: 0.1
deltaT = 0.0033333333333333
Time = 0.13

isoAdvection: After conservative bounding: min(alpha) = -9.5934832615385e-14, max(alpha) = 1 + 1.7319479184152e-14
t = 0.13,	 sum(alpha*V) = 0.19453365401668,	 dev = 5.5511151231258e-14%,	 1-max(alpha1) = -1.7319479184152e-14 at cell 1315,	 min(alpha1) = -9.5934832615385e-14 at cell 510
ExecutionTime = 0.18 s  ClockTime = 0 s  timeStepTime = 0 s

Courant Number mean: 0.099999999999995 max: 0.1
Interface Courant Number mean: 0.0005666666666667 max: 0.1
deltaT = 0.0033333333333333
Time = 0.133333

isoAdvection: After conservative bounding: min(alpha) = -8.6341734796767e-14, max(alpha) = 1 + 1.5543122344752e-14
t = 0.13333333333333,	 sum(alpha*V) = 0.19453365401668,	 dev = 6.6613381477509e-14%,	 1-max(alpha1) = -1.5543122344752e-14 at cell 1315,	 min(alpha1) = -8.6341734796767e-14 at cell 510
ExecutionTime = 0.18 s  ClockTime = 0 s  timeStepTime = 0 s

Courant Number mean: 0.099999999999995 max: 0.1
Interface Courant Number mean: 0.0005666666666667 max: 0.1
deltaT = 0.0033333333333333
Time = 0.136667

isoAdvection: After conservative bounding: min(alpha) = -7.8626094874949e-14, max(alpha) = 1 + 1.3988810110277e-14
t = 0.13666666666667,	 sum(alpha*V) = 0.19453365401668,	 dev = 9.9920072216264e-14%,	 1-max(alpha1) = -1.3988810110277e-14 at cell 1315,	 min(alpha1) = -7.8626094874949e-14 at cell 511
ExecutionTime = 0.18 s  ClockTime = 0 s  timeStepTime = 0 s

Courant Number mean: 0.099999999999995 max: 0.1
Interface Courant Number mean: 0.0005666666666667 max: 0.1
deltaT = 0.0033333333333333
Time = 0.14

isoAdvection: After conservative bounding: min(alpha) = -7.5944719941991e-14, max(alpha) = 1 + 1.2656542480727e-14
t = 0.14,	 sum(alpha*V) = 0.19453365401668,	 dev = 8.8817841970013e-14%,	 1-max(alpha1) = -1.2656542480727e-14 at cell 1315,	 min(alpha1) = -7.5944719941991e-14 at cell 511
ExecutionTime = 0.18 s  ClockTime = 0 s  timeStepTime = 0 s

Courant Number mean: 0.099999999999995 max: 0.1
Interface Courant Number mean: 0.00058333333333337 max: 0.1
deltaT = 0.0033333333333333
Time = 0.143333

isoAdvection: After conservative bounding: min(alpha) = -7.3012884589109e-14, max(alpha) = 1 + 1.1324274851177e-14
t = 0.14333333333333,	 sum(alpha*V) = 0.19453365401668,	 dev = 9.9920072216264e-14%,	 1-max(alpha1) = -1.1324274851177e-14 at cell 1315,	 min(alpha1) = -7.3012884589109e-14 at cell 511
ExecutionTime = 0.19 s  ClockTime = 0 s  timeStepTime = 0.01 s

Courant Number mean: 0.099999999999995 max: 0.1
Interface Courant Number mean: 0.0006166666666667 max: 0.1
deltaT = 0.0033333333333333
Time = 0.146667

isoAdvection: After conservative bounding: min(alpha) = -6.9908328525063e-14, max(alpha) = 1 + 1.0214051826551e-14
t = 0.14666666666667,	 sum(alpha*V) = 0.19453365401668,	 dev = 5.5511151231258e-14%,	 1-max(alpha1) = -1.0214051826551e-14 at cell 1315,	 min(alpha1) = -6.9908328525063e-14 at cell 511
ExecutionTime = 0.19 s  ClockTime = 0 s  timeStepTime = 0 s

Courant Number mean: 0.099999999999995 max: 0.1
Interface Courant Number mean: 0.0005666666666667 max: 0.1
deltaT = 0.0033333333333333
Time = 0.15

isoAdvection: After conservative bounding: min(alpha) = -6.6694743774855e-14, max(alpha) = 1 + 9.3258734068513e-15
t = 0.15,	 sum(alpha*V) = 0.19453365401668,	 dev = 3.3306690738755e-14%,	 1-max(alpha1) = -9.3258734068513e-15 at cell 1315,	 min(alpha1) = -6.6694743774855e-14 at cell 511
ExecutionTime = 0.19 s  ClockTime = 0 s  timeStepTime = 0 s

Courant Number mean: 0.099999999999995 max: 0.1
Interface Courant Number mean: 0.0005666666666667 max: 0.1
deltaT = 0.0033333333333333
Time = 0.153333

isoAdvection: After conservative bounding: min(alpha) = -6.3424134861686e-14, max(alpha) = 1 + 8.4376949871512e-15
t = 0.15333333333333,	 sum(alpha*V) = 0.19453365401668,	 dev = 4.4408920985006e-14%,	 1-max(alpha1) = -8.4376949871512e-15 at cell 1315,	 min(alpha1) = -6.3424134861686e-14 at cell 511
ExecutionTime = 0.19 s  ClockTime = 0 s  timeStepTime = 0 s

Courant Number mean: 0.099999999999995 max: 0.1
Interface Courant Number mean: 0.00058333333333337 max: 0.1
deltaT = 0.0033333333333333
Time = 0.156667

isoAdvection: After conservative bounding: min(alpha) = -6.0140845529041e-14, max(alpha) = 1 + 7.7715611723761e-15
t = 0.15666666666667,	 sum(alpha*V) = 0.19453365401668,	 dev = 6.6613381477509e-14%,	 1-max(alpha1) = -7.7715611723761e-15 at cell 1315,	 min(alpha1) = -6.0140845529041e-14 at cell 511
ExecutionTime = 0.19 s  ClockTime = 0 s  timeStepTime = 0 s

Courant Number mean: 0.099999999999995 max: 0.1
Interface Courant Number mean: 0.00060000000000003 max: 0.1
deltaT = 0.0033333333333333
Time = 0.16

isoAdvection: After conservative bounding: min(alpha) = -5.6879710482574e-14, max(alpha) = 1 + 7.105427357601e-15
t = 0.16,	 sum(alpha*V) = 0.19453365401668,	 dev = 5.5511151231258e-14%,	 1-max(alpha1) = -7.105427357601e-15 at cell 1315,	 min(alpha1) = -5.6879710482574e-14 at cell 511
ExecutionTime = 0.19 s  ClockTime = 0 s  timeStepTime = 0 s

Courant Number mean: 0.099999999999995 max: 0.1
Interface Courant Number mean: 0.00058333333333337 max: 0.1
deltaT = 0.0033333333333333
Time = 0.163333

isoAdvection: After conservative bounding: min(alpha) = -5.3669380536956e-14, max(alpha) = 1 + 6.2172489379009e-15
t = 0.16333333333333,	 sum(alpha*V) = 0.19453365401668,	 dev = 4.4408920985006e-14%,	 1-max(alpha1) = -6.2172489379009e-15 at cell 1315,	 min(alpha1) = -5.3669380536956e-14 at cell 511
ExecutionTime = 0.19 s  ClockTime = 0 s  timeStepTime = 0 s

Courant Number mean: 0.099999999999995 max: 0.1
Interface Courant Number mean: 0.00055000000000003 max: 0.1
deltaT = 0.0033333333333333
Time = 0.166667

isoAdvection: After conservative bounding: min(alpha) = -5.0532380934226e-14, max(alpha) = 1 + 5.7731597280508e-15
t = 0.16666666666667,	 sum(alpha*V) = 0.19453365401668,	 dev = 6.6613381477509e-14%,	 1-max(alpha1) = -5.7731597280508e-15 at cell 1315,	 min(alpha1) = -5.0532380934226e-14 at cell 511
ExecutionTime = 0.19 s  ClockTime = 0 s  timeStepTime = 0 s

Courant Number mean: 0.099999999999996 max: 0.1
Interface Courant Number mean: 0.0005666666666667 max: 0.1
deltaT = 0.0033333333333333
Time = 0.17

isoAdvection: After conservative bounding: min(alpha) = -4.74861725636e-14, max(alpha) = 1 + 5.7731597280508e-15
t = 0.17,	 sum(alpha*V) = 0.19453365401668,	 dev = 6.6613381477509e-14%,	 1-max(alpha1) = -5.7731597280508e-15 at cell 1415,	 min(alpha1) = -4.74861725636e-14 at cell 511
ExecutionTime = 0.2 s  ClockTime = 0 s  timeStepTime = 0.01 s

Courant Number mean: 0.099999999999995 max: 0.1
Interface Courant Number mean: 0.0005666666666667 max: 0.1
deltaT = 0.0033333333333333
Time = 0.173333

isoAdvection: After conservative bounding: min(alpha) = -4.4543880546459e-14, max(alpha) = 1 + 5.5511151231258e-15
t = 0.17333333333333,	 sum(alpha*V) = 0.19453365401668,	 dev = 4.4408920985006e-14%,	 1-max(alpha1) = -5.5511151231258e-15 at cell 1415,	 min(alpha1) = -4.4543880546459e-14 at cell 511
ExecutionTime = 0.2 s  ClockTime = 0 s  timeStepTime = 0 s

Courant Number mean: 0.099999999999995 max: 0.1
Interface Courant Number mean: 0.00058333333333337 max: 0.1
deltaT = 0.0033333333333333
Time = 0.176667

isoAdvection: After conservative bounding: min(alpha) = -4.1715189646741e-14, max(alpha) = 1 + 5.3290705182008e-15
t = 0.17666666666667,	 sum(alpha*V) = 0.19453365401668,	 dev = 6.6613381477509e-14%,	 1-max(alpha1) = -5.3290705182008e-15 at cell 1415,	 min(alpha1) = -4.1715189646741e-14 at cell 511
ExecutionTime = 0.2 s  ClockTime = 0 s  timeStepTime = 0 s

Courant Number mean: 0.099999999999996 max: 0.1
Interface Courant Number mean: 0.00058333333333337 max: 0.1
deltaT = 0.0033333333333333
Time = 0.18

isoAdvection: After conservative bounding: min(alpha) = -3.9006798118265e-14, max(alpha) = 1 + 5.1070259132757e-15
t = 0.18,	 sum(alpha*V) = 0.19453365401668,	 dev = 8.8817841970013e-14%,	 1-max(alpha1) = -5.1070259132757e-15 at cell 1415,	 min(alpha1) = -3.9006798118265e-14 at cell 511
ExecutionTime = 0.2 s  ClockTime = 0 s  timeStepTime = 0 s

Courant Number mean: 0.099999999999995 max: 0.1
Interface Courant Number mean: 0.00058333333333337 max: 0.1
deltaT = 0.0033333333333333
Time = 0.183333

isoAdvection: After conservative bounding: min(alpha) = -3.6422932999016e-14, max(alpha) = 1 + 4.8849813083507e-15
t = 0.18333333333333,	 sum(alpha*V) = 0.19453365401668,	 dev = 6.6613381477509e-14%,	 1-max(alpha1) = -4.8849813083507e-15 at cell 1415,	 min(alpha1) = -3.6422932999016e-14 at cell 511
ExecutionTime = 0.2 s  ClockTime = 0 s  timeStepTime = 0 s

Courant Number mean: 0.099999999999995 max: 0.1
Interface Courant Number mean: 0.00060000000000003 max: 0.1
deltaT = 0.0033333333333333
Time = 0.186667

isoAdvection: After conservative bounding: min(alpha) = -3.4045261642232e-14, max(alpha) = 1 + 4.6629367034257e-15
t = 0.18666666666667,	 sum(alpha*V) = 0.19453365401668,	 dev = 5.5511151231258e-14%,	 1-max(alpha1) = -4.6629367034257e-15 at cell 1415,	 min(alpha1) = -3.4045261642232e-14 at cell 512
ExecutionTime = 0.2 s  ClockTime = 0 s  timeStepTime = 0 s

Courant Number mean: 0.099999999999995 max: 0.1
Interface Courant Number mean: 0.00060000000000003 max: 0.1
deltaT = 0.0033333333333333
Time = 0.19

isoAdvection: After conservative bounding: min(alpha) = -3.2905106296262e-14, max(alpha) = 1 + 4.4408920985006e-15
t = 0.19,	 sum(alpha*V) = 0.19453365401668,	 dev = 6.6613381477509e-14%,	 1-max(alpha1) = -4.4408920985006e-15 at cell 1415,	 min(alpha1) = -3.2905106296262e-14 at cell 512
ExecutionTime = 0.2 s  ClockTime = 1 s  timeStepTime = 0 s

Courant Number mean: 0.099999999999996 max: 0.1
Interface Courant Number mean: 0.00058333333333337 max: 0.1
deltaT = 0.0033333333333333
Time = 0.193333

isoAdvection: After conservative bounding: min(alpha) = -3.1723650035381e-14, max(alpha) = 1 + 4.2188474935756e-15
t = 0.19333333333333,	 sum(alpha*V) = 0.19453365401668,	 dev = 1.3322676295502e-13%,	 1-max(alpha1) = -4.2188474935756e-15 at cell 1415,	 min(alpha1) = -3.1723650035381e-14 at cell 512
ExecutionTime = 0.2 s  ClockTime = 1 s  timeStepTime = 0 s

Courant Number mean: 0.099999999999996 max: 0.1
Interface Courant Number mean: 0.00050000000000003 max: 0.1
deltaT = 0.0033333333333333
Time = 0.196667

isoAdvection: After conservative bounding: min(alpha) = -3.0513431157773e-14, max(alpha) = 1 + 3.9968028886506e-15
t = 0.19666666666667,	 sum(alpha*V) = 0.19453365401668,	 dev = 8.8817841970013e-14%,	 1-max(alpha1) = -3.9968028886506e-15 at cell 1415,	 min(alpha1) = -3.0513431157773e-14 at cell 512
ExecutionTime = 0.21 s  ClockTime = 1 s  timeStepTime = 0.01 s

Courant Number mean: 0.099999999999995 max: 0.1
Interface Courant Number mean: 0.00050000000000003 max: 0.1
deltaT = 0.0033333333333333
Time = 0.2

isoAdvection: After conservative bounding: min(alpha) = -2.9285617029986e-14, max(alpha) = 1 + 3.7747582837255e-15
t = 0.2,	 sum(alpha*V) = 0.19453365401668,	 dev = 9.9920072216264e-14%,	 1-max(alpha1) = -3.7747582837255e-15 at cell 1415,	 min(alpha1) = -2.9285617029986e-14 at cell 512
ExecutionTime = 0.21 s  ClockTime = 1 s  timeStepTime = 0 s

Courant Number mean: 0.099999999999996 max: 0.1
Interface Courant Number mean: 0.00046666666666669 max: 0.1
deltaT = 0.0033333333333333
Time = 0.203333

isoAdvection: After conservative bounding: min(alpha) = -2.8050069143367e-14, max(alpha) = 1 + 3.5527136788005e-15
t = 0.20333333333333,	 sum(alpha*V) = 0.19453365401668,	 dev = 9.9920072216264e-14%,	 1-max(alpha1) = -3.5527136788005e-15 at cell 1415,	 min(alpha1) = -2.8050069143367e-14 at cell 512
ExecutionTime = 0.21 s  ClockTime = 1 s  timeStepTime = 0 s

Courant Number mean: 0.099999999999996 max: 0.1
Interface Courant Number mean: 0.00046666666666669 max: 0.1
deltaT = 0.0033333333333333
Time = 0.206667

isoAdvection: After conservative bounding: min(alpha) = -2.681542861824e-14, max(alpha) = 1 + 3.3306690738755e-15
t = 0.20666666666667,	 sum(alpha*V) = 0.19453365401668,	 dev = 1.1102230246252e-13%,	 1-max(alpha1) = -3.3306690738755e-15 at cell 1316,	 min(alpha1) = -2.681542861824e-14 at cell 512
ExecutionTime = 0.21 s  ClockTime = 1 s  timeStepTime = 0 s

Courant Number mean: 0.099999999999995 max: 0.1
Interface Courant Number mean: 0.00053333333333336 max: 0.1
deltaT = 0.0033333333333333
Time = 0.21

isoAdvection: After conservative bounding: min(alpha) = -2.5589204065728e-14, max(alpha) = 1 + 3.3306690738755e-15
t = 0.21,	 sum(alpha*V) = 0.19453365401668,	 dev = 6.6613381477509e-14%,	 1-max(alpha1) = -3.3306690738755e-15 at cell 1316,	 min(alpha1) = -2.5589204065728e-14 at cell 512
ExecutionTime = 0.21 s  ClockTime = 1 s  timeStepTime = 0 s

Courant Number mean: 0.099999999999996 max: 0.1
Interface Courant Number mean: 0.0005666666666667 max: 0.1
deltaT = 0.0033333333333333
Time = 0.213333

isoAdvection: After conservative bounding: min(alpha) = -2.4377859840656e-14, max(alpha) = 1 + 3.3306690738755e-15
t = 0.21333333333333,	 sum(alpha*V) = 0.19453365401668,	 dev = 1.3322676295502e-13%,	 1-max(alpha1) = -3.3306690738755e-15 at cell 1316,	 min(alpha1) = -2.4377859840656e-14 at cell 512
ExecutionTime = 0.21 s  ClockTime = 1 s  timeStepTime = 0 s

Courant Number mean: 0.099999999999996 max: 0.1
Interface Courant Number mean: 0.0006166666666667 max: 0.1
deltaT = 0.0033333333333333
Time = 0.216667

isoAdvection: After conservative bounding: min(alpha) = -2.3186903152749e-14, max(alpha) = 1 + 3.3306690738755e-15
t = 0.21666666666667,	 sum(alpha*V) = 0.19453365401668,	 dev = 9.9920072216264e-14%,	 1-max(alpha1) = -3.3306690738755e-15 at cell 1316,	 min(alpha1) = -2.3186903152749e-14 at cell 512
ExecutionTime = 0.22 s  ClockTime = 1 s  timeStepTime = 0.01 s

Courant Number mean: 0.099999999999996 max: 0.1
Interface Courant Number mean: 0.0006166666666667 max: 0.1
deltaT = 0.0033333333333333
Time = 0.22

isoAdvection: After conservative bounding: min(alpha) = -2.2020968863544e-14, max(alpha) = 1 + 3.3306690738755e-15
t = 0.22,	 sum(alpha*V) = 0.19453365401668,	 dev = 1.1102230246252e-13%,	 1-max(alpha1) = -3.3306690738755e-15 at cell 1316,	 min(alpha1) = -2.2020968863544e-14 at cell 512
ExecutionTime = 0.22 s  ClockTime = 1 s  timeStepTime = 0 s

Courant Number mean: 0.099999999999996 max: 0.1
Interface Courant Number mean: 0.00060000000000003 max: 0.1
deltaT = 0.0033333333333333
Time = 0.223333

isoAdvection: After conservative bounding: min(alpha) = -2.0883901094227e-14, max(alpha) = 1 + 3.3306690738755e-15
t = 0.22333333333333,	 sum(alpha*V) = 0.19453365401668,	 dev = 5.5511151231258e-14%,	 1-max(alpha1) = -3.3306690738755e-15 at cell 1316,	 min(alpha1) = -2.0883901094227e-14 at cell 512
ExecutionTime = 0.22 s  ClockTime = 1 s  timeStepTime = 0 s

Courant Number mean: 0.099999999999996 max: 0.1
Interface Courant Number mean: 0.0005666666666667 max: 0.1
deltaT = 0.0033333333333333
Time = 0.226667

isoAdvection: After conservative bounding: min(alpha) = -1.9778831014355e-14, max(alpha) = 1 + 3.3306690738755e-15
t = 0.22666666666667,	 sum(alpha*V) = 0.19453365401668,	 dev = 1.1102230246252e-13%,	 1-max(alpha1) = -3.3306690738755e-15 at cell 1316,	 min(alpha1) = -1.9778831014355e-14 at cell 512
ExecutionTime = 0.22 s  ClockTime = 1 s  timeStepTime = 0 s

Courant Number mean: 0.099999999999996 max: 0.1
Interface Courant Number mean: 0.0005666666666667 max: 0.1
deltaT = 0.0033333333333333
Time = 0.23

isoAdvection: After conservative bounding: min(alpha) = -1.8708250381311e-14, max(alpha) = 1 + 3.3306690738755e-15
t = 0.23,	 sum(alpha*V) = 0.19453365401668,	 dev = 9.9920072216264e-14%,	 1-max(alpha1) = -3.3306690738755e-15 at cell 1316,	 min(alpha1) = -1.8708250381311e-14 at cell 512
ExecutionTime = 0.22 s  ClockTime = 1 s  timeStepTime = 0 s

Courant Number mean: 0.099999999999996 max: 0.1
Interface Courant Number mean: 0.00055000000000003 max: 0.1
deltaT = 0.0033333333333333
Time = 0.233333

isoAdvection: After conservative bounding: min(alpha) = -1.7674080562347e-14, max(alpha) = 1 + 3.3306690738755e-15
t = 0.23333333333333,	 sum(alpha*V) = 0.19453365401668,	 dev = 6.6613381477509e-14%,	 1-max(alpha1) = -3.3306690738755e-15 at cell 1316,	 min(alpha1) = -1.7674080562347e-14 at cell 512
ExecutionTime = 0.22 s  ClockTime = 1 s  timeStepTime = 0 s

Courant Number mean: 0.099999999999996 max: 0.1
Interface Courant Number mean: 0.0005666666666667 max: 0.1
deltaT = 0.0033333333333333
Time = 0.236667

isoAdvection: After conservative bounding: min(alpha) = -1.6859584525336e-14, max(alpha) = 1 + 3.3306690738755e-15
t = 0.23666666666667,	 sum(alpha*V) = 0.19453365401668,	 dev = 9.9920072216264e-14%,	 1-max(alpha1) = -3.3306690738755e-15 at cell 1316,	 min(alpha1) = -1.6859584525336e-14 at cell 513
ExecutionTime = 0.22 s  ClockTime = 1 s  timeStepTime = 0 s

Courant Number mean: 0.099999999999996 max: 0.1
Interface Courant Number mean: 0.0005666666666667 max: 0.1
deltaT = 0.0033333333333333
Time = 0.24

isoAdvection: After conservative bounding: min(alpha) = -1.6285475199551e-14, max(alpha) = 1 + 3.3306690738755e-15
t = 0.24,	 sum(alpha*V) = 0.19453365401668,	 dev = 1.1102230246252e-13%,	 1-max(alpha1) = -3.3306690738755e-15 at cell 1316,	 min(alpha1) = -1.6285475199551e-14 at cell 513
ExecutionTime = 0.22 s  ClockTime = 1 s  timeStepTime = 0 s

Courant Number mean: 0.099999999999996 max: 0.1
Interface Courant Number mean: 0.00058333333333337 max: 0.1
deltaT = 0.0033333333333333
Time = 0.243333

isoAdvection: After conservative bounding: min(alpha) = -1.5704940239246e-14, max(alpha) = 1 + 3.3306690738755e-15
t = 0.24333333333333,	 sum(alpha*V) = 0.19453365401668,	 dev = 8.8817841970013e-14%,	 1-max(alpha1) = -3.3306690738755e-15 at cell 1316,	 min(alpha1) = -1.5704940239246e-14 at cell 513
ExecutionTime = 0.23 s  ClockTime = 1 s  timeStepTime = 0.01 s

Courant Number mean: 0.099999999999996 max: 0.1
Interface Courant Number mean: 0.0006166666666667 max: 0.1
deltaT = 0.0033333333333333
Time = 0.246667

isoAdvection: After conservative bounding: min(alpha) = -1.5121247063711e-14, max(alpha) = 1 + 3.3306690738755e-15
t = 0.24666666666667,	 sum(alpha*V) = 0.19453365401668,	 dev = 9.9920072216264e-14%,	 1-max(alpha1) = -3.3306690738755e-15 at cell 1316,	 min(alpha1) = -1.5121247063711e-14 at cell 513
ExecutionTime = 0.23 s  ClockTime = 1 s  timeStepTime = 0 s

Courant Number mean: 0.099999999999996 max: 0.1
Interface Courant Number mean: 0.0005666666666667 max: 0.1
deltaT = 0.0033333333333333
Time = 0.25

isoAdvection: After conservative bounding: min(alpha) = -1.453735214144e-14, max(alpha) = 1 + 3.3306690738755e-15
t = 0.25,	 sum(alpha*V) = 0.19453365401668,	 dev = 8.8817841970013e-14%,	 1-max(alpha1) = -3.3306690738755e-15 at cell 1316,	 min(alpha1) = -1.453735214144e-14 at cell 513
ExecutionTime = 0.23 s  ClockTime = 1 s  timeStepTime = 0 s

Courant Number mean: 0.099999999999996 max: 0.1
Interface Courant Number mean: 0.00058333333333337 max: 0.1
deltaT = 0.0033333333333333
Time = 0.253333

isoAdvection: After conservative bounding: min(alpha) = -1.3955912438764e-14, max(alpha) = 1 + 3.3306690738755e-15
t = 0.25333333333333,	 sum(alpha*V) = 0.19453365401668,	 dev = 9.9920072216264e-14%,	 1-max(alpha1) = -3.3306690738755e-15 at cell 1316,	 min(alpha1) = -1.3955912438764e-14 at cell 513
ExecutionTime = 0.23 s  ClockTime = 1 s  timeStepTime = 0 s

Courant Number mean: 0.099999999999996 max: 0.1
Interface Courant Number mean: 0.00058333333333337 max: 0.1
deltaT = 0.0033333333333333
Time = 0.256667

isoAdvection: After conservative bounding: min(alpha) = -1.3379298518965e-14, max(alpha) = 1 + 3.3306690738755e-15
t = 0.25666666666667,	 sum(alpha*V) = 0.19453365401668,	 dev = 1.3322676295502e-13%,	 1-max(alpha1) = -3.3306690738755e-15 at cell 1316,	 min(alpha1) = -1.3379298518965e-14 at cell 513
ExecutionTime = 0.23 s  ClockTime = 1 s  timeStepTime = 0 s

Courant Number mean: 0.099999999999996 max: 0.1
Interface Courant Number mean: 0.00060000000000003 max: 0.1
deltaT = 0.0033333333333333
Time = 0.26

isoAdvection: After conservative bounding: min(alpha) = -1.280960886182e-14, max(alpha) = 1 + 3.3306690738755e-15
t = 0.26,	 sum(alpha*V) = 0.19453365401668,	 dev = 9.9920072216264e-14%,	 1-max(alpha1) = -3.3306690738755e-15 at cell 1316,	 min(alpha1) = -1.280960886182e-14 at cell 513
ExecutionTime = 0.23 s  ClockTime = 1 s  timeStepTime = 0 s

Courant Number mean: 0.099999999999996 max: 0.1
Interface Courant Number mean: 0.00058333333333337 max: 0.1
deltaT = 0.0033333333333333
Time = 0.263333

isoAdvection: After conservative bounding: min(alpha) = -1.2248685031817e-14, max(alpha) = 1 + 3.3306690738755e-15
t = 0.26333333333333,	 sum(alpha*V) = 0.19453365401668,	 dev = 8.8817841970013e-14%,	 1-max(alpha1) = -3.3306690738755e-15 at cell 1316,	 min(alpha1) = -1.2248685031817e-14 at cell 513
ExecutionTime = 0.23 s  ClockTime = 1 s  timeStepTime = 0 s

Courant Number mean: 0.099999999999996 max: 0.1
Interface Courant Number mean: 0.00055000000000003 max: 0.1
deltaT = 0.0033333333333333
Time = 0.266667

isoAdvection: After conservative bounding: min(alpha) = -1.1698127376326e-14, max(alpha) = 1 + 3.3306690738755e-15
t = 0.26666666666667,	 sum(alpha*V) = 0.19453365401668,	 dev = 1.1102230246252e-13%,	 1-max(alpha1) = -3.3306690738755e-15 at cell 1316,	 min(alpha1) = -1.1698127376326e-14 at cell 513
ExecutionTime = 0.23 s  ClockTime = 1 s  timeStepTime = 0 s

Courant Number mean: 0.099999999999996 max: 0.1
Interface Courant Number mean: 0.0005666666666667 max: 0.1
deltaT = 0.0033333333333333
Time = 0.27

isoAdvection: After conservative bounding: min(alpha) = -1.1159310982917e-14, max(alpha) = 1 + 3.3306690738755e-15
t = 0.27,	 sum(alpha*V) = 0.19453365401668,	 dev = 9.9920072216264e-14%,	 1-max(alpha1) = -3.3306690738755e-15 at cell 1316,	 min(alpha1) = -1.1159310982917e-14 at cell 513
ExecutionTime = 0.24 s  ClockTime = 1 s  timeStepTime = 0.01 s

Courant Number mean: 0.099999999999996 max: 0.1
Interface Courant Number mean: 0.0005666666666667 max: 0.1
deltaT = 0.0033333333333333
Time = 0.273333

isoAdvection: After conservative bounding: min(alpha) = -1.0633401668095e-14, max(alpha) = 1 + 3.3306690738755e-15
t = 0.27333333333333,	 sum(alpha*V) = 0.19453365401668,	 dev = 8.8817841970013e-14%,	 1-max(alpha1) = -3.3306690738755e-15 at cell 1316,	 min(alpha1) = -1.0633401668095e-14 at cell 513
ExecutionTime = 0.24 s  ClockTime = 1 s  timeStepTime = 0 s

Courant Number mean: 0.099999999999996 max: 0.1
Interface Courant Number mean: 0.00058333333333337 max: 0.1
deltaT = 0.0033333333333333
Time = 0.276667

isoAdvection: After conservative bounding: min(alpha) = -1.0121371808158e-14, max(alpha) = 1 + 3.3306690738755e-15
t = 0.27666666666667,	 sum(alpha*V) = 0.19453365401668,	 dev = 6.6613381477509e-14%,	 1-max(alpha1) = -3.3306690738755e-15 at cell 1316,	 min(alpha1) = -1.0121371808158e-14 at cell 513
ExecutionTime = 0.24 s  ClockTime = 1 s  timeStepTime = 0 s

Courant Number mean: 0.099999999999995 max: 0.1
Interface Courant Number mean: 0.00058333333333337 max: 0.1
deltaT = 0.0033333333333333
Time = 0.28

isoAdvection: After conservative bounding: min(alpha) = -9.9677780635787e-15, max(alpha) = 1 + 2.6023627697214e-13
t = 0.28,	 sum(alpha*V) = 0.19453365401668,	 dev = 9.9920072216264e-14%,	 1-max(alpha1) = -2.6023627697214e-13 at cell 1419,	 min(alpha1) = -9.9677780635787e-15 at cell 613
ExecutionTime = 0.24 s  ClockTime = 1 s  timeStepTime = 0 s

Courant Number mean: 0.099999999999995 max: 0.1
Interface Courant Number mean: 0.00060000000000003 max: 0.1
deltaT = 0.0033333333333333
Time = 0.283333

isoAdvection: After conservative bounding: min(alpha) = -9.84259294921e-15, max(alpha) = 1 + 2.1693757901176e-13
t = 0.28333333333333,	 sum(alpha*V) = 0.19453365401668,	 dev = 6.6613381477509e-14%,	 1-max(alpha1) = -2.1693757901176e-13 at cell 1419,	 min(alpha1) = -9.84259294921e-15 at cell 613
ExecutionTime = 0.24 s  ClockTime = 1 s  timeStepTime = 0 s

Courant Number mean: 0.099999999999996 max: 0.1
Interface Courant Number mean: 0.00060000000000003 max: 0.1
deltaT = 0.0033333333333333
Time = 0.286667

isoAdvection: After conservative bounding: min(alpha) = -9.6946233859687e-15, max(alpha) = 1 + 1.9539925233403e-13
t = 0.28666666666667,	 sum(alpha*V) = 0.19453365401668,	 dev = 9.9920072216264e-14%,	 1-max(alpha1) = -1.9539925233403e-13 at cell 1419,	 min(alpha1) = -9.6946233859687e-15 at cell 613
ExecutionTime = 0.24 s  ClockTime = 1 s  timeStepTime = 0 s

Courant Number mean: 0.099999999999995 max: 0.1
Interface Courant Number mean: 0.00058333333333337 max: 0.1
deltaT = 0.0033333333333333
Time = 0.29

isoAdvection: After conservative bounding: min(alpha) = -9.5264035535369e-15, max(alpha) = 1 + 1.6275869541005e-13
t = 0.29,	 sum(alpha*V) = 0.19453365401668,	 dev = 8.8817841970013e-14%,	 1-max(alpha1) = -1.6275869541005e-13 at cell 1419,	 min(alpha1) = -9.5264035535369e-15 at cell 613
ExecutionTime = 0.24 s  ClockTime = 1 s  timeStepTime = 0 s

Courant Number mean: 0.099999999999995 max: 0.1
Interface Courant Number mean: 0.00058333333333337 max: 0.1
deltaT = 0.0033333333333333
Time = 0.293333

isoAdvection: After conservative bounding: min(alpha) = -9.3403580685966e-15, max(alpha) = 1 + 1.4654943925052e-13
t = 0.29333333333333,	 sum(alpha*V) = 0.19453365401668,	 dev = 9.9920072216264e-14%,	 1-max(alpha1) = -1.4654943925052e-13 at cell 1419,	 min(alpha1) = -9.3403580685966e-15 at cell 613
ExecutionTime = 0.24 s  ClockTime = 1 s  timeStepTime = 0 s

Courant Number mean: 0.099999999999995 max: 0.1
Interface Courant Number mean: 0.00050000000000003 max: 0.1
deltaT = 0.0033333333333333
Time = 0.296667

isoAdvection: After conservative bounding: min(alpha) = -9.1387941076262e-15, max(alpha) = 1 + 1.3189449532547e-13
t = 0.29666666666667,	 sum(alpha*V) = 0.19453365401668,	 dev = 9.9920072216264e-14%,	 1-max(alpha1) = -1.3189449532547e-13 at cell 1419,	 min(alpha1) = -9.1387941076262e-15 at cell 613
ExecutionTime = 0.25 s  ClockTime = 1 s  timeStepTime = 0.01 s

Courant Number mean: 0.099999999999995 max: 0.1
Interface Courant Number mean: 0.00048333333333336 max: 0.1
deltaT = 0.0033333333333333
Time = 0.3

isoAdvection: After conservative bounding: min(alpha) = -9.0539988524273e-15, max(alpha) = 1 + 1.1879386363489e-13
t = 0.3,	 sum(alpha*V) = 0.19453365401668,	 dev = 9.9920072216264e-14%,	 1-max(alpha1) = -1.1879386363489e-13 at cell 1419,	 min(alpha1) = -9.0539988524273e-15 at cell 614
ExecutionTime = 0.25 s  ClockTime = 1 s  timeStepTime = 0 s

Courant Number mean: 0.099999999999995 max: 0.1
Interface Courant Number mean: 0.00046666666666669 max: 0.1
deltaT = 0.0033333333333333
Time = 0.303333

isoAdvection: After conservative bounding: min(alpha) = -8.9972183325937e-15, max(alpha) = 1 + 1.0702549957387e-13
t = 0.30333333333333,	 sum(alpha*V) = 0.19453365401668,	 dev = 9.9920072216264e-14%,	 1-max(alpha1) = -1.0702549957387e-13 at cell 1419,	 min(alpha1) = -8.9972183325937e-15 at cell 614
ExecutionTime = 0.25 s  ClockTime = 1 s  timeStepTime = 0 s

Courant Number mean: 0.099999999999995 max: 0.1
Interface Courant Number mean: 0.00050000000000003 max: 0.1
deltaT = 0.0033333333333333
Time = 0.306667

isoAdvection: After conservative bounding: min(alpha) = -8.9211654875766e-15, max(alpha) = 1 + 9.6367358537464e-14
t = 0.30666666666667,	 sum(alpha*V) = 0.19453365401668,	 dev = 1.3322676295502e-13%,	 1-max(alpha1) = -9.6367358537464e-14 at cell 1419,	 min(alpha1) = -8.9211654875766e-15 at cell 614
ExecutionTime = 0.25 s  ClockTime = 1 s  timeStepTime = 0 s

Courant Number mean: 0.099999999999995 max: 0.1
Interface Courant Number mean: 0.00053333333333336 max: 0.1
deltaT = 0.0033333333333333
Time = 0.31

isoAdvection: After conservative bounding: min(alpha) = -8.8272774416034e-15, max(alpha) = 1 + 8.6819440525687e-14
t = 0.31,	 sum(alpha*V) = 0.19453365401668,	 dev = 9.9920072216264e-14%,	 1-max(alpha1) = -8.6819440525687e-14 at cell 1419,	 min(alpha1) = -8.8272774416034e-15 at cell 614
ExecutionTime = 0.25 s  ClockTime = 1 s  timeStepTime = 0 s

Courant Number mean: 0.099999999999995 max: 0.1
Interface Courant Number mean: 0.00058333333333337 max: 0.1
deltaT = 0.0033333333333333
Time = 0.313333

isoAdvection: After conservative bounding: min(alpha) = -8.7169904510742e-15, max(alpha) = 1 + 7.8159700933611e-14
t = 0.31333333333333,	 sum(alpha*V) = 0.19453365401668,	 dev = 1.1102230246252e-13%,	 1-max(alpha1) = -7.8159700933611e-14 at cell 1419,	 min(alpha1) = -8.7169904510742e-15 at cell 614
ExecutionTime = 0.25 s  ClockTime = 1 s  timeStepTime = 0 s

Courant Number mean: 0.099999999999995 max: 0.1
Interface Courant Number mean: 0.0006166666666667 max: 0.1
deltaT = 0.0033333333333333
Time = 0.316667

isoAdvection: After conservative bounding: min(alpha) = -8.5917286645507e-15, max(alpha) = 1 + 7.0388139761235e-14
t = 0.31666666666667,	 sum(alpha*V) = 0.19453365401668,	 dev = 9.9920072216264e-14%,	 1-max(alpha1) = -7.0388139761235e-14 at cell 1419,	 min(alpha1) = -8.5917286645507e-15 at cell 614
ExecutionTime = 0.25 s  ClockTime = 1 s  timeStepTime = 0 s

Courant Number mean: 0.099999999999995 max: 0.1
Interface Courant Number mean: 0.0006166666666667 max: 0.1
deltaT = 0.0033333333333333
Time = 0.32

isoAdvection: After conservative bounding: min(alpha) = -8.4528942757603e-15, max(alpha) = 1 + 6.3282712403634e-14
t = 0.32,	 sum(alpha*V) = 0.19453365401668,	 dev = 6.6613381477509e-14%,	 1-max(alpha1) = -6.3282712403634e-14 at cell 1419,	 min(alpha1) = -8.4528942757603e-15 at cell 614
ExecutionTime = 0.25 s  ClockTime = 1 s  timeStepTime = 0 s

Courant Number mean: 0.099999999999995 max: 0.1
Interface Courant Number mean: 0.00058333333333337 max: 0.1
deltaT = 0.0033333333333333
Time = 0.323333

isoAdvection: After conservative bounding: min(alpha) = -8.3018589946003e-15, max(alpha) = 1 + 5.7065463465733e-14
t = 0.32333333333333,	 sum(alpha*V) = 0.19453365401668,	 dev = 8.8817841970013e-14%,	 1-max(alpha1) = -5.7065463465733e-14 at cell 1419,	 min(alpha1) = -8.3018589946003e-15 at cell 614
ExecutionTime = 0.25 s  ClockTime = 1 s  timeStepTime = 0 s

Courant Number mean: 0.099999999999995 max: 0.1
Interface Courant Number mean: 0.0005666666666667 max: 0.1
deltaT = 0.0033333333333333
Time = 0.326667

isoAdvection: After conservative bounding: min(alpha) = -8.1399567563271e-15, max(alpha) = 1 + 5.1292303737682e-14
t = 0.32666666666667,	 sum(alpha*V) = 0.19453365401668,	 dev = 9.9920072216264e-14%,	 1-max(alpha1) = -5.1292303737682e-14 at cell 1419,	 min(alpha1) = -8.1399567563271e-15 at cell 614
ExecutionTime = 0.26 s  ClockTime = 1 s  timeStepTime = 0.01 s

Courant Number mean: 0.099999999999995 max: 0.1
Interface Courant Number mean: 0.0005666666666667 max: 0.1
deltaT = 0.0033333333333333
Time = 0.33

isoAdvection: After conservative bounding: min(alpha) = -7.9684775860678e-15, max(alpha) = 1 + 4.6185277824407e-14
t = 0.33,	 sum(alpha*V) = 0.19453365401668,	 dev = 6.6613381477509e-14%,	 1-max(alpha1) = -4.6185277824407e-14 at cell 1419,	 min(alpha1) = -7.9684775860678e-15 at cell 614
ExecutionTime = 0.26 s  ClockTime = 1 s  timeStepTime = 0 s

Courant Number mean: 0.099999999999995 max: 0.1
Interface Courant Number mean: 0.00055000000000003 max: 0.1
deltaT = 0.0033333333333333
Time = 0.333333

isoAdvection: After conservative bounding: min(alpha) = -7.7886625342432e-15, max(alpha) = 1 + 4.1744385725906e-14
t = 0.33333333333333,	 sum(alpha*V) = 0.19453365401668,	 dev = 9.9920072216264e-14%,	 1-max(alpha1) = -4.1744385725906e-14 at cell 1419,	 min(alpha1) = -7.7886625342432e-15 at cell 614
ExecutionTime = 0.26 s  ClockTime = 1 s  timeStepTime = 0 s

Courant Number mean: 0.099999999999995 max: 0.1
Interface Courant Number mean: 0.0005666666666667 max: 0.1
deltaT = 0.0033333333333333
Time = 0.336667

isoAdvection: After conservative bounding: min(alpha) = -7.601699598225e-15, max(alpha) = 1 + 3.752553823233e-14
t = 0.33666666666667,	 sum(alpha*V) = 0.19453365401668,	 dev = 8.8817841970013e-14%,	 1-max(alpha1) = -3.752553823233e-14 at cell 1419,	 min(alpha1) = -7.601699598225e-15 at cell 614
ExecutionTime = 0.26 s  ClockTime = 1 s  timeStepTime = 0 s

Courant Number mean: 0.099999999999995 max: 0.1
Interface Courant Number mean: 0.0005666666666667 max: 0.1
deltaT = 0.0033333333333333
Time = 0.34

isoAdvection: After conservative bounding: min(alpha) = -7.4087205463593e-15, max(alpha) = 1 + 3.397282455353e-14
t = 0.34,	 sum(alpha*V) = 0.19453365401668,	 dev = 6.6613381477509e-14%,	 1-max(alpha1) = -3.397282455353e-14 at cell 1419,	 min(alpha1) = -7.4087205463593e-15 at cell 614
ExecutionTime = 0.26 s  ClockTime = 1 s  timeStepTime = 0 s

Courant Number mean: 0.099999999999995 max: 0.1
Interface Courant Number mean: 0.00058333333333337 max: 0.1
deltaT = 0.0033333333333333
Time = 0.343333

isoAdvection: After conservative bounding: min(alpha) = -7.2407692553947e-15, max(alpha) = 1 + 3.0420110874729e-14
t = 0.34333333333333,	 sum(alpha*V) = 0.19453365401668,	 dev = 6.6613381477509e-14%,	 1-max(alpha1) = -3.0420110874729e-14 at cell 1419,	 min(alpha1) = -7.2407692553947e-15 at cell 615
ExecutionTime = 0.26 s  ClockTime = 1 s  timeStepTime = 0 s

Courant Number mean: 0.099999999999995 max: 0.1
Interface Courant Number mean: 0.0006166666666667 max: 0.1
deltaT = 0.0033333333333333
Time = 0.346667

isoAdvection: After conservative bounding: min(alpha) = -7.1449730641745e-15, max(alpha) = 1 + 2.7533531010704e-14
t = 0.34666666666667,	 sum(alpha*V) = 0.19453365401668,	 dev = 6.6613381477509e-14%,	 1-max(alpha1) = -2.7533531010704e-14 at cell 1419,	 min(alpha1) = -7.1449730641745e-15 at cell 615
ExecutionTime = 0.26 s  ClockTime = 1 s  timeStepTime = 0 s

Courant Number mean: 0.099999999999995 max: 0.1
Interface Courant Number mean: 0.0005666666666667 max: 0.1
deltaT = 0.0033333333333333
Time = 0.35

isoAdvection: After conservative bounding: min(alpha) = -7.0399121943131e-15, max(alpha) = 1 + 2.4868995751604e-14
t = 0.35,	 sum(alpha*V) = 0.19453365401668,	 dev = 8.8817841970013e-14%,	 1-max(alpha1) = -2.4868995751604e-14 at cell 1419,	 min(alpha1) = -7.0399121943131e-15 at cell 615
ExecutionTime = 0.26 s  ClockTime = 1 s  timeStepTime = 0 s

Courant Number mean: 0.099999999999995 max: 0.1
Interface Courant Number mean: 0.00058333333333337 max: 0.1
deltaT = 0.0033333333333333
Time = 0.353333

isoAdvection: After conservative bounding: min(alpha) = -6.9263845970198e-15, max(alpha) = 1 + 2.2426505097428e-14
t = 0.35333333333333,	 sum(alpha*V) = 0.19453365401668,	 dev = 1.1102230246252e-13%,	 1-max(alpha1) = -2.2426505097428e-14 at cell 1419,	 min(alpha1) = -6.9263845970198e-15 at cell 615
ExecutionTime = 0.27 s  ClockTime = 1 s  timeStepTime = 0.01 s

Courant Number mean: 0.099999999999995 max: 0.1
Interface Courant Number mean: 0.00058333333333337 max: 0.1
deltaT = 0.0033333333333333
Time = 0.356667

isoAdvection: After conservative bounding: min(alpha) = -6.8051780999638e-15, max(alpha) = 1 + 1.9984014443253e-14
t = 0.35666666666667,	 sum(alpha*V) = 0.19453365401668,	 dev = 6.6613381477509e-14%,	 1-max(alpha1) = -1.9984014443253e-14 at cell 1419,	 min(alpha1) = -6.8051780999638e-15 at cell 615
ExecutionTime = 0.27 s  ClockTime = 1 s  timeStepTime = 0 s

Courant Number mean: 0.099999999999995 max: 0.1
Interface Courant Number mean: 0.00060000000000003 max: 0.1
deltaT = 0.0033333333333333
Time = 0.36

isoAdvection: After conservative bounding: min(alpha) = -6.6770662125314e-15, max(alpha) = 1 + 1.7985612998928e-14
t = 0.36,	 sum(alpha*V) = 0.19453365401668,	 dev = 5.5511151231258e-14%,	 1-max(alpha1) = -1.7985612998928e-14 at cell 1419,	 min(alpha1) = -6.6770662125314e-15 at cell 615
ExecutionTime = 0.27 s  ClockTime = 1 s  timeStepTime = 0 s

Courant Number mean: 0.099999999999995 max: 0.1
Interface Courant Number mean: 0.00058333333333337 max: 0.1
deltaT = 0.0033333333333333
Time = 0.363333

isoAdvection: After conservative bounding: min(alpha) = -6.5428044412458e-15, max(alpha) = 1 + 1.6209256159527e-14
t = 0.36333333333333,	 sum(alpha*V) = 0.19453365401668,	 dev = 8.8817841970013e-14%,	 1-max(alpha1) = -1.6209256159527e-14 at cell 1419,	 min(alpha1) = -6.5428044412458e-15 at cell 615
ExecutionTime = 0.27 s  ClockTime = 1 s  timeStepTime = 0 s

Courant Number mean: 0.099999999999995 max: 0.1
Interface Courant Number mean: 0.00055000000000003 max: 0.1
deltaT = 0.0033333333333333
Time = 0.366667

isoAdvection: After conservative bounding: min(alpha) = -5.1617006964951e-13, max(alpha) = 1 + 3.2041036490682e-13
t = 0.36666666666667,	 sum(alpha*V) = 0.19453365401668,	 dev = 9.9920072216264e-14%,	 1-max(alpha1) = -3.2041036490682e-13 at cell 1620,	 min(alpha1) = -5.1617006964951e-13 at cell 913
ExecutionTime = 0.27 s  ClockTime = 1 s  timeStepTime = 0 s

Courant Number mean: 0.099999999999995 max: 0.1
Interface Courant Number mean: 0.00055000000000003 max: 0.1
deltaT = 0.0033333333333333
Time = 0.37

isoAdvection: After conservative bounding: min(alpha) = -4.6462535842003e-13, max(alpha) = 1 + 2.8865798640254e-13
t = 0.37,	 sum(alpha*V) = 0.19453365401668,	 dev = 8.8817841970013e-14%,	 1-max(alpha1) = -2.8865798640254e-13 at cell 1620,	 min(alpha1) = -4.6462535842003e-13 at cell 913
ExecutionTime = 0.27 s  ClockTime = 1 s  timeStepTime = 0 s

Courant Number mean: 0.099999999999995 max: 0.1
Interface Courant Number mean: 0.0005666666666667 max: 0.1
deltaT = 0.0033333333333333
Time = 0.373333

isoAdvection: After conservative bounding: min(alpha) = -5.3272275479799e-13, max(alpha) = 1 + 2.6023627697214e-13
t = 0.37333333333333,	 sum(alpha*V) = 0.19453365401668,	 dev = 6.6613381477509e-14%,	 1-max(alpha1) = -2.6023627697214e-13 at cell 1620,	 min(alpha1) = -5.3272275479799e-13 at cell 815
ExecutionTime = 0.27 s  ClockTime = 1 s  timeStepTime = 0 s

Courant Number mean: 0.099999999999995 max: 0.1
Interface Courant Number mean: 0.0005666666666667 max: 0.1
deltaT = 0.0033333333333333
Time = 0.376667

isoAdvection: After conservative bounding: min(alpha) = -4.2640705921442e-13, max(alpha) = 1 + 2.1715962361668e-13
t = 0.37666666666667,	 sum(alpha*V) = 0.19453365401668,	 dev = 5.5511151231258e-14%,	 1-max(alpha1) = -2.1715962361668e-13 at cell 1620,	 min(alpha1) = -4.2640705921442e-13 at cell 815
ExecutionTime = 0.27 s  ClockTime = 1 s  timeStepTime = 0 s

Courant Number mean: 0.099999999999995 max: 0.1
Interface Courant Number mean: 0.00058333333333337 max: 0.1
deltaT = 0.0033333333333333
Time = 0.38

isoAdvection: After conservative bounding: min(alpha) = -3.4136099816885e-13, max(alpha) = 1 + 1.8141044222375e-13
t = 0.38,	 sum(alpha*V) = 0.19453365401668,	 dev = 8.8817841970013e-14%,	 1-max(alpha1) = -1.8141044222375e-13 at cell 1620,	 min(alpha1) = -3.4136099816885e-13 at cell 815
ExecutionTime = 0.28 s  ClockTime = 1 s  timeStepTime = 0.01 s

Courant Number mean: 0.099999999999995 max: 0.1
Interface Courant Number mean: 0.00060000000000003 max: 0.1
deltaT = 0.0033333333333333
Time = 0.383333

isoAdvection: After conservative bounding: min(alpha) = -2.7333393435579e-13, max(alpha) = 1 + 1.516564651638e-13
t = 0.38333333333333,	 sum(alpha*V) = 0.19453365401668,	 dev = 4.4408920985006e-14%,	 1-max(alpha1) = -1.516564651638e-13 at cell 1620,	 min(alpha1) = -2.7333393435579e-13 at cell 815
ExecutionTime = 0.28 s  ClockTime = 1 s  timeStepTime = 0 s

Courant Number mean: 0.099999999999995 max: 0.1
Interface Courant Number mean: 0.00060000000000003 max: 0.1
deltaT = 0.0033333333333333
Time = 0.386667

isoAdvection: After conservative bounding: min(alpha) = -2.4625571904781e-13, max(alpha) = 1 + 1.3677947663382e-13
t = 0.38666666666667,	 sum(alpha*V) = 0.19453365401668,	 dev = 5.5511151231258e-14%,	 1-max(alpha1) = -1.3677947663382e-13 at cell 1620,	 min(alpha1) = -2.4625571904781e-13 at cell 815
ExecutionTime = 0.28 s  ClockTime = 1 s  timeStepTime = 0 s

Courant Number mean: 0.099999999999995 max: 0.1
Interface Courant Number mean: 0.00058333333333337 max: 0.1
deltaT = 0.0033333333333333
Time = 0.39

isoAdvection: After conservative bounding: min(alpha) = -2.0547568842233e-13, max(alpha) = 1 + 1.2345680033832e-13
t = 0.39,	 sum(alpha*V) = 0.19453365401668,	 dev = 6.6613381477509e-14%,	 1-max(alpha1) = -1.2345680033832e-13 at cell 1620,	 min(alpha1) = -2.0547568842233e-13 at cell 815
ExecutionTime = 0.28 s  ClockTime = 1 s  timeStepTime = 0 s

Courant Number mean: 0.099999999999995 max: 0.1
Interface Courant Number mean: 0.00058333333333337 max: 0.1
deltaT = 0.0033333333333333
Time = 0.393333

isoAdvection: After conservative bounding: min(alpha) = -1.8519550534783e-13, max(alpha) = 1 + 1.1168843627729e-13
t = 0.39333333333333,	 sum(alpha*V) = 0.19453365401668,	 dev = 8.8817841970013e-14%,	 1-max(alpha1) = -1.1168843627729e-13 at cell 1620,	 min(alpha1) = -1.8519550534783e-13 at cell 815
ExecutionTime = 0.28 s  ClockTime = 1 s  timeStepTime = 0 s

Courant Number mean: 0.099999999999995 max: 0.1
Interface Courant Number mean: 0.00048333333333336 max: 0.1
deltaT = 0.0033333333333333
Time = 0.396667

isoAdvection: After conservative bounding: min(alpha) = -1.546031140038e-13, max(alpha) = 1 + 1.0103029524089e-13
t = 0.39666666666667,	 sum(alpha*V) = 0.19453365401668,	 dev = 8.8817841970013e-14%,	 1-max(alpha1) = -1.0103029524089e-13 at cell 1620,	 min(alpha1) = -1.546031140038e-13 at cell 815
ExecutionTime = 0.28 s  ClockTime = 1 s  timeStepTime = 0 s

Courant Number mean: 0.099999999999995 max: 0.1
Interface Courant Number mean: 0.00048333333333336 max: 0.1
deltaT = 0.0033333333333333
Time = 0.4

isoAdvection: After conservative bounding: min(alpha) = -1.2911318198419e-13, max(alpha) = 1 + 9.1260332624188e-14
t = 0.4,	 sum(alpha*V) = 0.19453365401668,	 dev = 6.6613381477509e-14%,	 1-max(alpha1) = -9.1260332624188e-14 at cell 1620,	 min(alpha1) = -1.2911318198419e-13 at cell 815
ExecutionTime = 0.28 s  ClockTime = 1 s  timeStepTime = 0 s

Courant Number mean: 0.099999999999995 max: 0.1
Interface Courant Number mean: 0.00046666666666669 max: 0.1
deltaT = 0.0033333333333333
Time = 0.403333

isoAdvection: After conservative bounding: min(alpha) = -1.1648175148944e-13, max(alpha) = 1 + 8.2600593032112e-14
t = 0.40333333333333,	 sum(alpha*V) = 0.19453365401668,	 dev = 4.4408920985006e-14%,	 1-max(alpha1) = -8.2600593032112e-14 at cell 1620,	 min(alpha1) = -1.1648175148944e-13 at cell 815
ExecutionTime = 0.29 s  ClockTime = 1 s  timeStepTime = 0.01 s

Courant Number mean: 0.099999999999995 max: 0.1
Interface Courant Number mean: 0.00053333333333336 max: 0.1
deltaT = 0.0033333333333333
Time = 0.406667

isoAdvection: After conservative bounding: min(alpha) = -1.0511546679093e-13, max(alpha) = 1 + 7.4829031859736e-14
t = 0.40666666666667,	 sum(alpha*V) = 0.19453365401668,	 dev = 8.8817841970013e-14%,	 1-max(alpha1) = -7.4829031859736e-14 at cell 1620,	 min(alpha1) = -1.0511546679093e-13 at cell 815
ExecutionTime = 0.29 s  ClockTime = 1 s  timeStepTime = 0 s

Courant Number mean: 0.099999999999995 max: 0.1
Interface Courant Number mean: 0.00055000000000003 max: 0.1
deltaT = 0.0033333333333333
Time = 0.41

isoAdvection: After conservative bounding: min(alpha) = -9.4887518032378e-14, max(alpha) = 1 + 6.7723604502135e-14
t = 0.41,	 sum(alpha*V) = 0.19453365401668,	 dev = 4.4408920985006e-14%,	 1-max(alpha1) = -6.7723604502135e-14 at cell 1620,	 min(alpha1) = -9.4887518032378e-14 at cell 815
ExecutionTime = 0.29 s  ClockTime = 1 s  timeStepTime = 0 s

Courant Number mean: 0.099999999999995 max: 0.1
Interface Courant Number mean: 0.00058333333333337 max: 0.1
deltaT = 0.0033333333333333
Time = 0.413333

isoAdvection: After conservative bounding: min(alpha) = -8.5682840463328e-14, max(alpha) = 1 + 6.1284310959309e-14
t = 0.41333333333333,	 sum(alpha*V) = 0.19453365401668,	 dev = 9.9920072216264e-14%,	 1-max(alpha1) = -6.1284310959309e-14 at cell 1620,	 min(alpha1) = -8.5682840463328e-14 at cell 815
ExecutionTime = 0.29 s  ClockTime = 1 s  timeStepTime = 0 s

Courant Number mean: 0.099999999999995 max: 0.1
Interface Courant Number mean: 0.0006166666666667 max: 0.1
deltaT = 0.0033333333333333
Time = 0.416667

isoAdvection: After conservative bounding: min(alpha) = -7.7398255834162e-14, max(alpha) = 1 + 5.5511151231258e-14
t = 0.41666666666667,	 sum(alpha*V) = 0.19453365401668,	 dev = 6.6613381477509e-14%,	 1-max(alpha1) = -5.5511151231258e-14 at cell 1620,	 min(alpha1) = -7.7398255834162e-14 at cell 815
ExecutionTime = 0.29 s  ClockTime = 1 s  timeStepTime = 0 s

Courant Number mean: 0.099999999999995 max: 0.1
Interface Courant Number mean: 0.0006166666666667 max: 0.1
deltaT = 0.0033333333333333
Time = 0.42

isoAdvection: After conservative bounding: min(alpha) = -6.9941100748028e-14, max(alpha) = 1 + 5.0404125317982e-14
t = 0.42,	 sum(alpha*V) = 0.19453365401668,	 dev = 9.9920072216264e-14%,	 1-max(alpha1) = -5.0404125317982e-14 at cell 1620,	 min(alpha1) = -6.9941100748028e-14 at cell 815
ExecutionTime = 0.29 s  ClockTime = 1 s  timeStepTime = 0 s

Courant Number mean: 0.099999999999995 max: 0.1
Interface Courant Number mean: 0.0005666666666667 max: 0.1
deltaT = 0.0033333333333333
Time = 0.423333

isoAdvection: After conservative bounding: min(alpha) = -1.0725957159489e-13, max(alpha) = 1 + 4.5741188614556e-14
t = 0.42333333333333,	 sum(alpha*V) = 0.19453365401668,	 dev = 5.5511151231258e-14%,	 1-max(alpha1) = -4.5741188614556e-14 at cell 1620,	 min(alpha1) = -1.0725957159489e-13 at cell 1113
ExecutionTime = 0.29 s  ClockTime = 1 s  timeStepTime = 0 s

Courant Number mean: 0.099999999999995 max: 0.1
Interface Courant Number mean: 0.0005666666666667 max: 0.1
deltaT = 0.0033333333333333
Time = 0.426667

isoAdvection: After conservative bounding: min(alpha) = -9.7009727408804e-14, max(alpha) = 1 + 4.1522341120981e-14
t = 0.42666666666667,	 sum(alpha*V) = 0.19453365401668,	 dev = 1.1102230246252e-14%,	 1-max(alpha1) = -4.1522341120981e-14 at cell 1620,	 min(alpha1) = -9.7009727408804e-14 at cell 1113
ExecutionTime = 0.29 s  ClockTime = 1 s  timeStepTime = 0 s

Courant Number mean: 0.099999999999995 max: 0.1
Interface Courant Number mean: 0.0005666666666667 max: 0.1
deltaT = 0.0033333333333333
Time = 0.43

isoAdvection: After conservative bounding: min(alpha) = -8.7796291580193e-14, max(alpha) = 1 + 3.7747582837255e-14
t = 0.43,	 sum(alpha*V) = 0.19453365401668,	 dev = 5.5511151231258e-14%,	 1-max(alpha1) = -3.7747582837255e-14 at cell 1620,	 min(alpha1) = -8.7796291580193e-14 at cell 1113
ExecutionTime = 0.3 s  ClockTime = 1 s  timeStepTime = 0.01 s

Courant Number mean: 0.099999999999995 max: 0.1
Interface Courant Number mean: 0.00055000000000003 max: 0.1
deltaT = 0.0033333333333333
Time = 0.433333

isoAdvection: After conservative bounding: min(alpha) = -7.9510799994936e-14, max(alpha) = 1 + 3.4194869158455e-14
t = 0.43333333333333,	 sum(alpha*V) = 0.19453365401668,	 dev = 3.3306690738755e-14%,	 1-max(alpha1) = -3.4194869158455e-14 at cell 1620,	 min(alpha1) = -7.9510799994936e-14 at cell 1113
ExecutionTime = 0.3 s  ClockTime = 1 s  timeStepTime = 0 s

Courant Number mean: 0.099999999999995 max: 0.1
Interface Courant Number mean: 0.0005666666666667 max: 0.1
deltaT = 0.0033333333333333
Time = 0.436667

isoAdvection: After conservative bounding: min(alpha) = -7.2057341471694e-14, max(alpha) = 1 + 3.1086244689504e-14
t = 0.43666666666667,	 sum(alpha*V) = 0.19453365401668,	 dev = 5.5511151231258e-14%,	 1-max(alpha1) = -3.1086244689504e-14 at cell 1620,	 min(alpha1) = -7.2057341471694e-14 at cell 1113
ExecutionTime = 0.3 s  ClockTime = 1 s  timeStepTime = 0 s

Courant Number mean: 0.099999999999995 max: 0.1
Interface Courant Number mean: 0.0005666666666667 max: 0.1
deltaT = 0.0033333333333333
Time = 0.44

isoAdvection: After conservative bounding: min(alpha) = -6.5343906697193e-14, max(alpha) = 1 + 2.8199664825479e-14
t = 0.44,	 sum(alpha*V) = 0.19453365401668,	 dev = 4.4408920985006e-14%,	 1-max(alpha1) = -2.8199664825479e-14 at cell 1620,	 min(alpha1) = -6.5343906697193e-14 at cell 1113
ExecutionTime = 0.3 s  ClockTime = 1 s  timeStepTime = 0 s

Courant Number mean: 0.099999999999995 max: 0.1
Interface Courant Number mean: 0.00058333333333337 max: 0.1
deltaT = 0.0033333333333333
Time = 0.443333

isoAdvection: After conservative bounding: min(alpha) = -5.9293831009927e-14, max(alpha) = 1 + 2.5757174171304e-14
t = 0.44333333333333,	 sum(alpha*V) = 0.19453365401668,	 dev = 6.6613381477509e-14%,	 1-max(alpha1) = -2.5757174171304e-14 at cell 1620,	 min(alpha1) = -5.9293831009927e-14 at cell 1113
ExecutionTime = 0.3 s  ClockTime = 1 s  timeStepTime = 0 s

Courant Number mean: 0.099999999999995 max: 0.1
Interface Courant Number mean: 0.0006166666666667 max: 0.1
deltaT = 0.0033333333333333
Time = 0.446667

isoAdvection: After conservative bounding: min(alpha) = -5.3837479593191e-14, max(alpha) = 1 + 2.3536728122053e-14
t = 0.44666666666667,	 sum(alpha*V) = 0.19453365401668,	 dev = 4.4408920985006e-14%,	 1-max(alpha1) = -2.3536728122053e-14 at cell 1620,	 min(alpha1) = -5.3837479593191e-14 at cell 1113
ExecutionTime = 0.3 s  ClockTime = 1 s  timeStepTime = 0 s

Courant Number mean: 0.099999999999995 max: 0.1
Interface Courant Number mean: 0.0005666666666667 max: 0.1
deltaT = 0.0033333333333333
Time = 0.45

isoAdvection: After conservative bounding: min(alpha) = -4.8912866518955e-14, max(alpha) = 1 + 2.2204460492503e-14
t = 0.45,	 sum(alpha*V) = 0.19453365401668,	 dev = 4.4408920985006e-14%,	 1-max(alpha1) = -2.2204460492503e-14 at cell 1621,	 min(alpha1) = -4.8912866518955e-14 at cell 1113
ExecutionTime = 0.3 s  ClockTime = 1 s  timeStepTime = 0 s

Courant Number mean: 0.099999999999995 max: 0.1
Interface Courant Number mean: 0.00058333333333336 max: 0.1
deltaT = 0.0033333333333333
Time = 0.453333

isoAdvection: After conservative bounding: min(alpha) = -4.4464826886785e-14, max(alpha) = 1 + 2.1538326677728e-14
t = 0.45333333333333,	 sum(alpha*V) = 0.19453365401668,	 dev = 3.3306690738755e-14%,	 1-max(alpha1) = -2.1538326677728e-14 at cell 1621,	 min(alpha1) = -4.4464826886785e-14 at cell 1113
ExecutionTime = 0.3 s  ClockTime = 1 s  timeStepTime = 0 s

Courant Number mean: 0.099999999999995 max: 0.1
Interface Courant Number mean: 0.00058333333333336 max: 0.1
deltaT = 0.0033333333333333
Time = 0.456667

isoAdvection: After conservative bounding: min(alpha) = -4.0444695188063e-14, max(alpha) = 1 + 2.0872192862953e-14
t = 0.45666666666667,	 sum(alpha*V) = 0.19453365401668,	 dev = 3.3306690738755e-14%,	 1-max(alpha1) = -2.0872192862953e-14 at cell 1621,	 min(alpha1) = -4.0444695188063e-14 at cell 1113
ExecutionTime = 0.31 s  ClockTime = 1 s  timeStepTime = 0.01 s

Courant Number mean: 0.099999999999995 max: 0.1
Interface Courant Number mean: 0.00060000000000003 max: 0.1
deltaT = 0.0033333333333333
Time = 0.46

isoAdvection: After conservative bounding: min(alpha) = -3.6808735221119e-14, max(alpha) = 1 + 1.9984014443253e-14
t = 0.46,	 sum(alpha*V) = 0.19453365401668,	 dev = 3.3306690738755e-14%,	 1-max(alpha1) = -1.9984014443253e-14 at cell 1621,	 min(alpha1) = -3.6808735221119e-14 at cell 1113
ExecutionTime = 0.31 s  ClockTime = 1 s  timeStepTime = 0 s

Courant Number mean: 0.099999999999995 max: 0.1
Interface Courant Number mean: 0.00058333333333336 max: 0.1
deltaT = 0.0033333333333333
Time = 0.463333

isoAdvection: After conservative bounding: min(alpha) = -3.4157380354521e-14, max(alpha) = 1 + 1.9095836023553e-14
t = 0.46333333333333,	 sum(alpha*V) = 0.19453365401668,	 dev = 3.3306690738755e-14%,	 1-max(alpha1) = -1.9095836023553e-14 at cell 1621,	 min(alpha1) = -3.4157380354521e-14 at cell 816
ExecutionTime = 0.31 s  ClockTime = 1 s  timeStepTime = 0 s

Courant Number mean: 0.099999999999995 max: 0.1
Interface Courant Number mean: 0.00053333333333336 max: 0.1
deltaT = 0.0033333333333333
Time = 0.466667

isoAdvection: After conservative bounding: min(alpha) = -3.2180254838106e-14, max(alpha) = 1 + 1.8429702208778e-14
t = 0.46666666666667,	 sum(alpha*V) = 0.19453365401668,	 dev = 4.4408920985006e-14%,	 1-max(alpha1) = -1.8429702208778e-14 at cell 1621,	 min(alpha1) = -3.2180254838106e-14 at cell 816
ExecutionTime = 0.31 s  ClockTime = 1 s  timeStepTime = 0 s

Courant Number mean: 0.099999999999995 max: 0.1
Interface Courant Number mean: 0.00055000000000003 max: 0.1
deltaT = 0.0033333333333333
Time = 0.47

isoAdvection: After conservative bounding: min(alpha) = -3.0282044915545e-14, max(alpha) = 1 + 1.7541523789077e-14
t = 0.47,	 sum(alpha*V) = 0.19453365401668,	 dev = 3.3306690738755e-14%,	 1-max(alpha1) = -1.7541523789077e-14 at cell 1621,	 min(alpha1) = -3.0282044915545e-14 at cell 816
ExecutionTime = 0.31 s  ClockTime = 1 s  timeStepTime = 0 s

Courant Number mean: 0.099999999999995 max: 0.1
Interface Courant Number mean: 0.0005666666666667 max: 0.1
deltaT = 0.0033333333333333
Time = 0.473333

isoAdvection: After conservative bounding: min(alpha) = -2.8466008593579e-14, max(alpha) = 1 + 1.6875389974302e-14
t = 0.47333333333333,	 sum(alpha*V) = 0.19453365401668,	 dev = 4.4408920985006e-14%,	 1-max(alpha1) = -1.6875389974302e-14 at cell 1621,	 min(alpha1) = -2.8466008593579e-14 at cell 816
ExecutionTime = 0.31 s  ClockTime = 1 s  timeStepTime = 0 s

Courant Number mean: 0.099999999999995 max: 0.1
Interface Courant Number mean: 0.0005666666666667 max: 0.1
deltaT = 0.0033333333333333
Time = 0.476667

isoAdvection: After conservative bounding: min(alpha) = -2.6733961608263e-14, max(alpha) = 1 + 1.6209256159527e-14
t = 0.47666666666667,	 sum(alpha*V) = 0.19453365401668,	 dev = 8.8817841970013e-14%,	 1-max(alpha1) = -1.6209256159527e-14 at cell 1621,	 min(alpha1) = -2.6733961608263e-14 at cell 816
ExecutionTime = 0.31 s  ClockTime = 1 s  timeStepTime = 0 s

Courant Number mean: 0.099999999999995 max: 0.1
Interface Courant Number mean: 0.00058333333333337 max: 0.1
deltaT = 0.0033333333333333
Time = 0.48

isoAdvection: After conservative bounding: min(alpha) = -2.5934686836457e-14, max(alpha) = 1 + 1.5543122344752e-14
t = 0.48,	 sum(alpha*V) = 0.19453365401668,	 dev = 5.5511151231258e-14%,	 1-max(alpha1) = -1.5543122344752e-14 at cell 1621,	 min(alpha1) = -2.5934686836457e-14 at cell 817
ExecutionTime = 0.31 s  ClockTime = 1 s  timeStepTime = 0 s

Courant Number mean: 0.099999999999995 max: 0.1
Interface Courant Number mean: 0.00060000000000003 max: 0.1
deltaT = 0.0033333333333333
Time = 0.483333

isoAdvection: After conservative bounding: min(alpha) = -2.5139308229421e-14, max(alpha) = 1 + 1.4876988529977e-14
t = 0.48333333333333,	 sum(alpha*V) = 0.19453365401668,	 dev = 6.6613381477509e-14%,	 1-max(alpha1) = -1.4876988529977e-14 at cell 1621,	 min(alpha1) = -2.5139308229421e-14 at cell 817
ExecutionTime = 0.32 s  ClockTime = 1 s  timeStepTime = 0.01 s

Courant Number mean: 0.099999999999995 max: 0.1
Interface Courant Number mean: 0.00060000000000003 max: 0.1
deltaT = 0.0033333333333333
Time = 0.486667

isoAdvection: After conservative bounding: min(alpha) = -2.431730250239e-14, max(alpha) = 1 + 1.4210854715202e-14
t = 0.48666666666667,	 sum(alpha*V) = 0.19453365401668,	 dev = 1.1102230246252e-14%,	 1-max(alpha1) = -1.4210854715202e-14 at cell 1621,	 min(alpha1) = -2.431730250239e-14 at cell 817
ExecutionTime = 0.32 s  ClockTime = 1 s  timeStepTime = 0 s

Courant Number mean: 0.099999999999995 max: 0.1
Interface Courant Number mean: 0.00058333333333337 max: 0.1
deltaT = 0.0033333333333333
Time = 0.49

isoAdvection: After conservative bounding: min(alpha) = -7.1287975522693e-13, max(alpha) = 1 + 1.3544720900427e-14
t = 0.49,	 sum(alpha*V) = 0.19453365401668,	 dev = 5.5511151231258e-14%,	 1-max(alpha1) = -1.3544720900427e-14 at cell 1621,	 min(alpha1) = -7.1287975522693e-13 at cell 918
ExecutionTime = 0.32 s  ClockTime = 1 s  timeStepTime = 0 s

Courant Number mean: 0.099999999999995 max: 0.1
Interface Courant Number mean: 0.00058333333333337 max: 0.1
deltaT = 0.0033333333333333
Time = 0.493333

isoAdvection: After conservative bounding: min(alpha) = -6.4266943747404e-13, max(alpha) = 1 + 1.2878587085652e-14
t = 0.49333333333333,	 sum(alpha*V) = 0.19453365401668,	 dev = 3.3306690738755e-14%,	 1-max(alpha1) = -1.2878587085652e-14 at cell 1621,	 min(alpha1) = -6.4266943747404e-13 at cell 918
ExecutionTime = 0.32 s  ClockTime = 1 s  timeStepTime = 0 s

Courant Number mean: 0.099999999999995 max: 0.1
Interface Courant Number mean: 0.00048333333333336 max: 0.1
deltaT = 0.0033333333333333
Time = 0.496667

isoAdvection: After conservative bounding: min(alpha) = -5.1528153329212e-13, max(alpha) = 1 + 1.2212453270877e-14
t = 0.49666666666667,	 sum(alpha*V) = 0.19453365401668,	 dev = 3.3306690738755e-14%,	 1-max(alpha1) = -1.2212453270877e-14 at cell 1621,	 min(alpha1) = -5.1528153329212e-13 at cell 918
ExecutionTime = 0.32 s  ClockTime = 1 s  timeStepTime = 0 s

Courant Number mean: 0.099999999999995 max: 0.1
Interface Courant Number mean: 0.00048333333333336 max: 0.1
deltaT = 0.0033333333333333
Time = 0.5

isoAdvection: After conservative bounding: min(alpha) = -4.1343713640087e-13, max(alpha) = 1 + 1.1546319456102e-14
t = 0.5,	 sum(alpha*V) = 0.19453365401668,	 dev = 4.4408920985006e-14%,	 1-max(alpha1) = -1.1546319456102e-14 at cell 1621,	 min(alpha1) = -4.1343713640087e-13 at cell 918
ExecutionTime = 0.32 s  ClockTime = 1 s  timeStepTime = 0 s

Courant Number mean: 0.099999999999995 max: 0.1
Interface Courant Number mean: 0.00046666666666669 max: 0.1
deltaT = 0.0033333333333333
Time = 0.503333

isoAdvection: After conservative bounding: min(alpha) = -3.7335581472991e-13, max(alpha) = 1 + 4.8383519413164e-13
t = 0.50333333333333,	 sum(alpha*V) = 0.19453365401668,	 dev = 4.4408920985006e-14%,	 1-max(alpha1) = -4.8383519413164e-13 at cell 1723,	 min(alpha1) = -3.7335581472991e-13 at cell 918
ExecutionTime = 0.32 s  ClockTime = 1 s  timeStepTime = 0 s

Courant Number mean: 0.099999999999995 max: 0.1
Interface Courant Number mean: 0.00053333333333336 max: 0.1
deltaT = 0.0033333333333333
Time = 0.506667

isoAdvection: After conservative bounding: min(alpha) = -2.9999068206563e-13, max(alpha) = 1 + 3.876898801991e-13
t = 0.50666666666667,	 sum(alpha*V) = 0.19453365401668,	 dev = 4.4408920985006e-14%,	 1-max(alpha1) = -3.876898801991e-13 at cell 1723,	 min(alpha1) = -2.9999068206563e-13 at cell 918
ExecutionTime = 0.32 s  ClockTime = 1 s  timeStepTime = 0 s

Courant Number mean: 0.099999999999995 max: 0.1
Interface Courant Number mean: 0.00055000000000003 max: 0.1
deltaT = 0.0033333333333333
Time = 0.51

isoAdvection: After conservative bounding: min(alpha) = -2.5133538261883e-13, max(alpha) = 1 + 3.1086244689504e-13
t = 0.51,	 sum(alpha*V) = 0.19453365401668,	 dev = 3.3306690738755e-14%,	 1-max(alpha1) = -3.1086244689504e-13 at cell 1723,	 min(alpha1) = -2.5133538261883e-13 at cell 918
ExecutionTime = 0.33 s  ClockTime = 1 s  timeStepTime = 0.01 s

Courant Number mean: 0.099999999999995 max: 0.1
Interface Courant Number mean: 0.00060000000000003 max: 0.1
deltaT = 0.0033333333333333
Time = 0.513333

isoAdvection: After conservative bounding: min(alpha) = -2.2757249727487e-13, max(alpha) = 1 + 2.8066438062524e-13
t = 0.51333333333333,	 sum(alpha*V) = 0.19453365401668,	 dev = 1.1102230246252e-14%,	 1-max(alpha1) = -2.8066438062524e-13 at cell 1723,	 min(alpha1) = -2.2757249727487e-13 at cell 918
ExecutionTime = 0.33 s  ClockTime = 1 s  timeStepTime = 0 s

Courant Number mean: 0.099999999999995 max: 0.1
Interface Courant Number mean: 0.0006166666666667 max: 0.1
deltaT = 0.0033333333333333
Time = 0.516667

[...]
ExecutionTime = 1.69 s  ClockTime = 2 s  timeStepTime = 0 s

Courant Number mean: 0.099999999999991 max: 0.099999999999997
Interface Courant Number mean: 0.00056666666666668 max: 0.099999999999997
deltaT = 0.0033333333333332
Time = 3.87667

isoAdvection: After conservative bounding: min(alpha) = -2.8877653430717e-14, max(alpha) = 1 + -2.4424906541753e-14
t = 3.8766666666667,	 sum(alpha*V) = 0.19453365401668,	 dev = -2.2204460492503e-14%,	 1-max(alpha1) = 2.4424906541753e-14 at cell 5091,	 min(alpha1) = -2.8877653430717e-14 at cell 4383
ExecutionTime = 1.69 s  ClockTime = 2 s  timeStepTime = 0 s

Courant Number mean: 0.099999999999991 max: 0.099999999999997
Interface Courant Number mean: 0.00058333333333334 max: 0.099999999999997
deltaT = 0.0033333333333332
Time = 3.88

isoAdvection: After conservative bounding: min(alpha) = -2.6317049773256e-14, max(alpha) = 1 + 0
t = 3.88,	 sum(alpha*V) = 0.19453365401668,	 dev = -2.2204460492503e-14%,	 1-max(alpha1) = 0 at cell 4590,	 min(alpha1) = -2.6317049773256e-14 at cell 4383
ExecutionTime = 1.69 s  ClockTime = 2 s  timeStepTime = 0 s

Courant Number mean: 0.099999999999991 max: 0.099999999999997
Interface Courant Number mean: 0.00055000000000001 max: 0.099999999999996
deltaT = 0.0033333333333332
Time = 3.88333

isoAdvection: After conservative bounding: min(alpha) = -2.4078022251732e-14, max(alpha) = 1 + -4.5519144009631e-15
t = 3.8833333333333,	 sum(alpha*V) = 0.19453365401668,	 dev = 3.3306690738755e-14%,	 1-max(alpha1) = 4.5519144009631e-15 at cell 4590,	 min(alpha1) = -2.4078022251732e-14 at cell 4384
ExecutionTime = 1.69 s  ClockTime = 2 s  timeStepTime = 0 s

Courant Number mean: 0.099999999999991 max: 0.099999999999997
Interface Courant Number mean: 0.00051666666666667 max: 0.099999999999997
deltaT = 0.0033333333333332
Time = 3.88667

isoAdvection: After conservative bounding: min(alpha) = -2.3389700865817e-14, max(alpha) = 1 + 0
t = 3.8866666666667,	 sum(alpha*V) = 0.19453365401668,	 dev = 1.1102230246252e-14%,	 1-max(alpha1) = 0 at cell 4691,	 min(alpha1) = -2.3389700865817e-14 at cell 4384
ExecutionTime = 1.69 s  ClockTime = 2 s  timeStepTime = 0 s

Courant Number mean: 0.099999999999991 max: 0.099999999999997
Interface Courant Number mean: 0.00048333333333334 max: 0.099999999999997
deltaT = 0.0033333333333332
Time = 3.89

isoAdvection: After conservative bounding: min(alpha) = -2.2634425607942e-14, max(alpha) = 1 + -8.3266726846887e-15
t = 3.89,	 sum(alpha*V) = 0.19453365401668,	 dev = 1.1102230246252e-14%,	 1-max(alpha1) = 8.3266726846887e-15 at cell 4691,	 min(alpha1) = -2.2634425607942e-14 at cell 4384
ExecutionTime = 1.69 s  ClockTime = 2 s  timeStepTime = 0 s

Courant Number mean: 0.099999999999991 max: 0.099999999999997
Interface Courant Number mean: 0.00048333333333334 max: 0.099999999999997
deltaT = 0.0033333333333332
Time = 3.89333

isoAdvection: After conservative bounding: min(alpha) = -2.1832848270276e-14, max(alpha) = 1 + 0
t = 3.8933333333333,	 sum(alpha*V) = 0.19453365401668,	 dev = -2.2204460492503e-14%,	 1-max(alpha1) = 0 at cell 5191,	 min(alpha1) = -2.1832848270276e-14 at cell 4384
ExecutionTime = 1.7 s  ClockTime = 2 s  timeStepTime = 0.01 s

Courant Number mean: 0.099999999999991 max: 0.099999999999997
Interface Courant Number mean: 0.00051666666666667 max: 0.099999999999996
deltaT = 0.0033333333333332
Time = 3.89667

isoAdvection: After conservative bounding: min(alpha) = -2.1002128778669e-14, max(alpha) = 1 + -9.8809849191639e-15
t = 3.8966666666667,	 sum(alpha*V) = 0.19453365401668,	 dev = 0%,	 1-max(alpha1) = 9.8809849191639e-15 at cell 5388,	 min(alpha1) = -2.1002128778669e-14 at cell 4384
ExecutionTime = 1.7 s  ClockTime = 2 s  timeStepTime = 0 s

Courant Number mean: 0.099999999999991 max: 0.099999999999997
Interface Courant Number mean: 0.00060000000000001 max: 0.099999999999997
deltaT = 0.0033333333333332
Time = 3.9

isoAdvection: After conservative bounding: min(alpha) = -2.0156427720386e-14, max(alpha) = 1 + 0
t = 3.9,	 sum(alpha*V) = 0.19453365401668,	 dev = -2.2204460492503e-14%,	 1-max(alpha1) = 0 at cell 4892,	 min(alpha1) = -2.0156427720386e-14 at cell 4384
ExecutionTime = 1.7 s  ClockTime = 2 s  timeStepTime = 0 s

Courant Number mean: 0.099999999999991 max: 0.099999999999997
Interface Courant Number mean: 0.00063333333333334 max: 0.099999999999997
deltaT = 0.0033333333333332
Time = 3.90333

isoAdvection: After conservative bounding: min(alpha) = -1.9307335313991e-14, max(alpha) = 1 + -1.2878587085652e-14
t = 3.9033333333333,	 sum(alpha*V) = 0.19453365401668,	 dev = 5.5511151231258e-14%,	 1-max(alpha1) = 1.2878587085652e-14 at cell 4992,	 min(alpha1) = -1.9307335313991e-14 at cell 4384
ExecutionTime = 1.7 s  ClockTime = 2 s  timeStepTime = 0 s

Courant Number mean: 0.099999999999991 max: 0.099999999999997
Interface Courant Number mean: 0.00061666666666667 max: 0.099999999999997
deltaT = 0.0033333333333332
Time = 3.90667

isoAdvection: After conservative bounding: min(alpha) = -1.8464244588728e-14, max(alpha) = 1 + -2.3869795029441e-14
t = 3.9066666666667,	 sum(alpha*V) = 0.19453365401668,	 dev = 9.9920072216264e-14%,	 1-max(alpha1) = 2.3869795029441e-14 at cell 4590,	 min(alpha1) = -1.8464244588728e-14 at cell 4384
ExecutionTime = 1.7 s  ClockTime = 2 s  timeStepTime = 0 s

Courant Number mean: 0.099999999999991 max: 0.099999999999997
Interface Courant Number mean: 0.00061666666666667 max: 0.099999999999996
deltaT = 0.0033333333333332
Time = 3.91

isoAdvection: After conservative bounding: min(alpha) = -1.7634675640306e-14, max(alpha) = 1 + 6.7057470687359e-13
t = 3.91,	 sum(alpha*V) = 0.19453365401668,	 dev = -6.6613381477509e-14%,	 1-max(alpha1) = -6.7057470687359e-13 at cell 5389,	 min(alpha1) = -1.7634675640306e-14 at cell 4384
ExecutionTime = 1.7 s  ClockTime = 2 s  timeStepTime = 0 s

Courant Number mean: 0.099999999999991 max: 0.099999999999997
Interface Courant Number mean: 0.00060000000000001 max: 0.099999999999997
deltaT = 0.0033333333333332
Time = 3.91333

isoAdvection: After conservative bounding: min(alpha) = -1.6824557014604e-14, max(alpha) = 1 + 5.2446935683292e-13
t = 3.9133333333333,	 sum(alpha*V) = 0.19453365401668,	 dev = -6.6613381477509e-14%,	 1-max(alpha1) = -5.2446935683292e-13 at cell 5389,	 min(alpha1) = -1.6824557014604e-14 at cell 4384
ExecutionTime = 1.7 s  ClockTime = 2 s  timeStepTime = 0 s

Courant Number mean: 0.099999999999991 max: 0.099999999999997
Interface Courant Number mean: 0.00056666666666667 max: 0.099999999999997
deltaT = 0.0033333333333332
Time = 3.91667

isoAdvection: After conservative bounding: min(alpha) = -1.6038469549755e-14, max(alpha) = 1 + 4.0678571622266e-13
t = 3.9166666666667,	 sum(alpha*V) = 0.19453365401668,	 dev = -6.6613381477509e-14%,	 1-max(alpha1) = -4.0678571622266e-13 at cell 5389,	 min(alpha1) = -1.6038469549755e-14 at cell 4384
ExecutionTime = 1.7 s  ClockTime = 2 s  timeStepTime = 0 s

Courant Number mean: 0.099999999999991 max: 0.099999999999997
Interface Courant Number mean: 0.00056666666666667 max: 0.099999999999997
deltaT = 0.0033333333333332
Time = 3.92

isoAdvection: After conservative bounding: min(alpha) = -1.5279857369756e-14, max(alpha) = 1 + 3.1152858070982e-13
t = 3.92,	 sum(alpha*V) = 0.19453365401668,	 dev = -8.8817841970013e-14%,	 1-max(alpha1) = -3.1152858070982e-13 at cell 5389,	 min(alpha1) = -1.5279857369756e-14 at cell 4384
ExecutionTime = 1.71 s  ClockTime = 2 s  timeStepTime = 0.01 s

Courant Number mean: 0.099999999999991 max: 0.099999999999997
Interface Courant Number mean: 0.00061666666666667 max: 0.099999999999996
deltaT = 0.0033333333333332
Time = 3.92333

isoAdvection: After conservative bounding: min(alpha) = -1.4551210159602e-14, max(alpha) = 1 + 2.3425705819591e-13
t = 3.9233333333333,	 sum(alpha*V) = 0.19453365401668,	 dev = 4.4408920985006e-14%,	 1-max(alpha1) = -2.3425705819591e-13 at cell 5389,	 min(alpha1) = -1.4551210159602e-14 at cell 4384
ExecutionTime = 1.71 s  ClockTime = 2 s  timeStepTime = 0 s

Courant Number mean: 0.099999999999991 max: 0.099999999999997
Interface Courant Number mean: 0.00063333333333334 max: 0.099999999999997
deltaT = 0.0033333333333332
Time = 3.92667

isoAdvection: After conservative bounding: min(alpha) = -1.3854220354435e-14, max(alpha) = 1 + 1.9495516312418e-13
t = 3.9266666666667,	 sum(alpha*V) = 0.19453365401668,	 dev = -1.5543122344752e-13%,	 1-max(alpha1) = -1.9495516312418e-13 at cell 5389,	 min(alpha1) = -1.3854220354435e-14 at cell 4384
ExecutionTime = 1.71 s  ClockTime = 2 s  timeStepTime = 0 s

Courant Number mean: 0.099999999999991 max: 0.099999999999997
Interface Courant Number mean: 0.00058333333333334 max: 0.099999999999997
deltaT = 0.0033333333333332
Time = 3.93

isoAdvection: After conservative bounding: min(alpha) = -1.3189918435983e-14, max(alpha) = 1 + 1.4588330543575e-13
t = 3.93,	 sum(alpha*V) = 0.19453365401668,	 dev = -2.2204460492503e-14%,	 1-max(alpha1) = -1.4588330543575e-13 at cell 5389,	 min(alpha1) = -1.3189918435983e-14 at cell 4384
ExecutionTime = 1.71 s  ClockTime = 2 s  timeStepTime = 0 s

Courant Number mean: 0.099999999999991 max: 0.099999999999997
Interface Courant Number mean: 0.00058333333333334 max: 0.099999999999997
deltaT = 0.0033333333333332
Time = 3.93333

isoAdvection: After conservative bounding: min(alpha) = -1.2558789141779e-14, max(alpha) = 1 + 1.1390888232654e-13
t = 3.9333333333333,	 sum(alpha*V) = 0.19453365401668,	 dev = -4.4408920985006e-14%,	 1-max(alpha1) = -1.1390888232654e-13 at cell 5389,	 min(alpha1) = -1.2558789141779e-14 at cell 4384
ExecutionTime = 1.71 s  ClockTime = 2 s  timeStepTime = 0 s

Courant Number mean: 0.099999999999991 max: 0.099999999999997
Interface Courant Number mean: 0.00060000000000001 max: 0.099999999999996
deltaT = 0.0033333333333332
Time = 3.93667

isoAdvection: After conservative bounding: min(alpha) = -1.1960871050551e-14, max(alpha) = 1 + 8.4154905266587e-14
t = 3.9366666666667,	 sum(alpha*V) = 0.19453365401668,	 dev = -8.8817841970013e-14%,	 1-max(alpha1) = -8.4154905266587e-14 at cell 5389,	 min(alpha1) = -1.1960871050551e-14 at cell 4384
ExecutionTime = 1.71 s  ClockTime = 2 s  timeStepTime = 0 s

Courant Number mean: 0.099999999999991 max: 0.099999999999997
Interface Courant Number mean: 0.00061666666666667 max: 0.099999999999997
deltaT = 0.0033333333333332
Time = 3.94

isoAdvection: After conservative bounding: min(alpha) = -1.1425693675041e-14, max(alpha) = 1 + 5.6621374255883e-14
t = 3.94,	 sum(alpha*V) = 0.19453365401668,	 dev = -6.6613381477509e-14%,	 1-max(alpha1) = -5.6621374255883e-14 at cell 5389,	 min(alpha1) = -1.1425693675041e-14 at cell 4385
ExecutionTime = 1.71 s  ClockTime = 2 s  timeStepTime = 0 s

Courant Number mean: 0.099999999999991 max: 0.099999999999998
Interface Courant Number mean: 0.00063333333333334 max: 0.099999999999997
deltaT = 0.0033333333333332
Time = 3.94333

isoAdvection: After conservative bounding: min(alpha) = -1.1174518252101e-14, max(alpha) = 1 + 3.1086244689504e-14
t = 3.9433333333333,	 sum(alpha*V) = 0.19453365401668,	 dev = 3.3306690738755e-14%,	 1-max(alpha1) = -3.1086244689504e-14 at cell 5389,	 min(alpha1) = -1.1174518252101e-14 at cell 4385
ExecutionTime = 1.71 s  ClockTime = 2 s  timeStepTime = 0 s

Courant Number mean: 0.099999999999991 max: 0.099999999999997
Interface Courant Number mean: 0.00061666666666667 max: 0.099999999999997
deltaT = 0.0033333333333332
Time = 3.94667

isoAdvection: After conservative bounding: min(alpha) = -1.0913767896077e-14, max(alpha) = 1 + 7.105427357601e-15
t = 3.9466666666667,	 sum(alpha*V) = 0.19453365401668,	 dev = -1.1102230246252e-13%,	 1-max(alpha1) = -7.105427357601e-15 at cell 5389,	 min(alpha1) = -1.0913767896077e-14 at cell 4385
ExecutionTime = 1.72 s  ClockTime = 2 s  timeStepTime = 0.01 s

Courant Number mean: 0.099999999999991 max: 0.099999999999997
Interface Courant Number mean: 0.0006 max: 0.099999999999996
deltaT = 0.0033333333333332
Time = 3.95

isoAdvection: After conservative bounding: min(alpha) = -1.064641402348e-14, max(alpha) = 1 + 0
t = 3.95,	 sum(alpha*V) = 0.19453365401668,	 dev = 3.3306690738755e-14%,	 1-max(alpha1) = 0 at cell 4993,	 min(alpha1) = -1.064641402348e-14 at cell 4385
ExecutionTime = 1.72 s  ClockTime = 2 s  timeStepTime = 0 s

Courant Number mean: 0.099999999999991 max: 0.099999999999997
Interface Courant Number mean: 0.00055000000000001 max: 0.099999999999997
deltaT = 0.0033333333333332
Time = 3.95333

isoAdvection: After conservative bounding: min(alpha) = -1.0375064990922e-14, max(alpha) = 1 + 0
t = 3.9533333333333,	 sum(alpha*V) = 0.19453365401668,	 dev = 1.1102230246252e-14%,	 1-max(alpha1) = 0 at cell 5292,	 min(alpha1) = -1.0375064990922e-14 at cell 4385
ExecutionTime = 1.72 s  ClockTime = 2 s  timeStepTime = 0 s

Courant Number mean: 0.099999999999992 max: 0.099999999999998
Interface Courant Number mean: 0.00053333333333334 max: 0.099999999999997
deltaT = 0.0033333333333332
Time = 3.95667

isoAdvection: After conservative bounding: min(alpha) = -1.0101993746062e-14, max(alpha) = 1 + 0
t = 3.9566666666667,	 sum(alpha*V) = 0.19453365401668,	 dev = -8.8817841970013e-14%,	 1-max(alpha1) = 0 at cell 4893,	 min(alpha1) = -1.0101993746062e-14 at cell 4385
ExecutionTime = 1.72 s  ClockTime = 2 s  timeStepTime = 0 s

Courant Number mean: 0.099999999999991 max: 0.099999999999997
Interface Courant Number mean: 0.00051666666666667 max: 0.099999999999997
deltaT = 0.0033333333333332
Time = 3.96

isoAdvection: After conservative bounding: min(alpha) = -9.8291651719544e-15, max(alpha) = 1 + 0
t = 3.96,	 sum(alpha*V) = 0.19453365401668,	 dev = -8.8817841970013e-14%,	 1-max(alpha1) = 0 at cell 5093,	 min(alpha1) = -9.8291651719544e-15 at cell 4385
ExecutionTime = 1.72 s  ClockTime = 2 s  timeStepTime = 0 s

Courant Number mean: 0.099999999999991 max: 0.099999999999997
Interface Courant Number mean: 0.00055 max: 0.099999999999996
deltaT = 0.0033333333333332
Time = 3.96333

isoAdvection: After conservative bounding: min(alpha) = -9.5582627494308e-15, max(alpha) = 1 + -1.9317880628478e-14
t = 3.9633333333333,	 sum(alpha*V) = 0.19453365401668,	 dev = 1.1102230246252e-14%,	 1-max(alpha1) = 1.9317880628478e-14 at cell 5391,	 min(alpha1) = -9.5582627494308e-15 at cell 4385
ExecutionTime = 1.72 s  ClockTime = 2 s  timeStepTime = 0 s

Courant Number mean: 0.099999999999991 max: 0.099999999999997
Interface Courant Number mean: 0.00058333333333334 max: 0.099999999999997
deltaT = 0.0033333333333332
Time = 3.96667

isoAdvection: After conservative bounding: min(alpha) = -9.2907142562704e-15, max(alpha) = 1 + -2.6312285683616e-14
t = 3.9666666666667,	 sum(alpha*V) = 0.19453365401668,	 dev = -4.4408920985006e-14%,	 1-max(alpha1) = 2.6312285683616e-14 at cell 4589,	 min(alpha1) = -9.2907142562704e-15 at cell 4385
ExecutionTime = 1.72 s  ClockTime = 2 s  timeStepTime = 0 s

Courant Number mean: 0.099999999999992 max: 0.099999999999998
Interface Courant Number mean: 0.00060000000000001 max: 0.099999999999997
deltaT = 0.0033333333333332
Time = 3.97

isoAdvection: After conservative bounding: min(alpha) = -9.0277162993178e-15, max(alpha) = 1 + -2.3647750424516e-14
t = 3.97,	 sum(alpha*V) = 0.19453365401668,	 dev = -4.4408920985006e-14%,	 1-max(alpha1) = 2.3647750424516e-14 at cell 4589,	 min(alpha1) = -9.0277162993178e-15 at cell 4385
ExecutionTime = 1.72 s  ClockTime = 2 s  timeStepTime = 0 s

Courant Number mean: 0.099999999999991 max: 0.099999999999997
Interface Courant Number mean: 0.00055000000000001 max: 0.099999999999997
deltaT = 0.0033333333333332
Time = 3.97333

isoAdvection: After conservative bounding: min(alpha) = -8.7702575390593e-15, max(alpha) = 1 + -1.1102230246252e-16
t = 3.9733333333333,	 sum(alpha*V) = 0.19453365401668,	 dev = -2.2204460492503e-14%,	 1-max(alpha1) = 1.1102230246252e-16 at cell 5193,	 min(alpha1) = -8.7702575390593e-15 at cell 4385
ExecutionTime = 1.73 s  ClockTime = 2 s  timeStepTime = 0.01 s

Courant Number mean: 0.09999999999999 max: 0.099999999999996
Interface Courant Number mean: 0.00056666666666667 max: 0.099999999999996
deltaT = 0.0033333333333332
Time = 3.97667

isoAdvection: After conservative bounding: min(alpha) = -8.5191405175669e-15, max(alpha) = 1 + 0
t = 3.9766666666667,	 sum(alpha*V) = 0.19453365401668,	 dev = -6.6613381477509e-14%,	 1-max(alpha1) = 0 at cell 4692,	 min(alpha1) = -8.5191405175669e-15 at cell 4385
ExecutionTime = 1.73 s  ClockTime = 2 s  timeStepTime = 0 s

Courant Number mean: 0.099999999999991 max: 0.099999999999997
Interface Courant Number mean: 0.00056666666666667 max: 0.099999999999997
deltaT = 0.0033333333333332
Time = 3.98

isoAdvection: After conservative bounding: min(alpha) = -1.1033544448461e-13, max(alpha) = 1 + -3.7858605139718e-14
t = 3.98,	 sum(alpha*V) = 0.19453365401668,	 dev = -1.1102230246252e-13%,	 1-max(alpha1) = 3.7858605139718e-14 at cell 5193,	 min(alpha1) = -1.1033544448461e-13 at cell 4489
ExecutionTime = 1.73 s  ClockTime = 2 s  timeStepTime = 0 s

Courant Number mean: 0.099999999999992 max: 0.099999999999998
Interface Courant Number mean: 0.00053333333333334 max: 0.099999999999998
deltaT = 0.0033333333333332
Time = 3.98333

isoAdvection: After conservative bounding: min(alpha) = -9.9416472520575e-14, max(alpha) = 1 + -5.6843418860808e-14
t = 3.9833333333333,	 sum(alpha*V) = 0.19453365401668,	 dev = 1.1102230246252e-14%,	 1-max(alpha1) = 5.6843418860808e-14 at cell 5193,	 min(alpha1) = -9.9416472520575e-14 at cell 4489
ExecutionTime = 1.73 s  ClockTime = 2 s  timeStepTime = 0 s

Courant Number mean: 0.099999999999991 max: 0.099999999999997
Interface Courant Number mean: 0.00051666666666667 max: 0.099999999999997
deltaT = 0.0033333333333331
Time = 3.98667

isoAdvection: After conservative bounding: min(alpha) = -8.9611275743182e-14, max(alpha) = 1 + 0
t = 3.9866666666667,	 sum(alpha*V) = 0.19453365401668,	 dev = -8.8817841970013e-14%,	 1-max(alpha1) = 0 at cell 4793,	 min(alpha1) = -8.9611275743182e-14 at cell 4489
ExecutionTime = 1.73 s  ClockTime = 2 s  timeStepTime = 0 s

Courant Number mean: 0.09999999999999 max: 0.099999999999996
Interface Courant Number mean: 0.0005 max: 0.099999999999995
deltaT = 0.0033333333333332
Time = 3.99

isoAdvection: After conservative bounding: min(alpha) = -8.0805002891239e-14, max(alpha) = 1 + -1.2323475573339e-14
t = 3.99,	 sum(alpha*V) = 0.19453365401668,	 dev = -2.2204460492503e-14%,	 1-max(alpha1) = 1.2323475573339e-14 at cell 5392,	 min(alpha1) = -8.0805002891239e-14 at cell 4489
ExecutionTime = 1.73 s  ClockTime = 2 s  timeStepTime = 0 s

Courant Number mean: 0.099999999999991 max: 0.099999999999997
Interface Courant Number mean: 0.00048333333333334 max: 0.099999999999997
deltaT = 0.0033333333333333
Time = 3.99333

isoAdvection: After conservative bounding: min(alpha) = -7.2897750922253e-14, max(alpha) = 1 + -1.1102230246252e-16
t = 3.9933333333333,	 sum(alpha*V) = 0.19453365401668,	 dev = 1.1102230246252e-13%,	 1-max(alpha1) = 1.1102230246252e-16 at cell 5293,	 min(alpha1) = -7.2897750922253e-14 at cell 4489
ExecutionTime = 1.73 s  ClockTime = 2 s  timeStepTime = 0 s

Courant Number mean: 0.099999999999993 max: 0.099999999999999
Interface Courant Number mean: 0.00055000000000002 max: 0.099999999999999
deltaT = 0.0033333333333332
Time = 3.99667

isoAdvection: After conservative bounding: min(alpha) = -6.5799627222229e-14, max(alpha) = 1 + -1.0658141036402e-14
t = 3.9966666666667,	 sum(alpha*V) = 0.19453365401668,	 dev = -4.4408920985006e-14%,	 1-max(alpha1) = 1.0658141036402e-14 at cell 5490,	 min(alpha1) = -6.5799627222229e-14 at cell 4489
ExecutionTime = 1.73 s  ClockTime = 2 s  timeStepTime = 0 s

Courant Number mean: 0.099999999999991 max: 0.099999999999997
Interface Courant Number mean: 0.00060000000000001 max: 0.099999999999997
deltaT = 0.003333333333333
Time = 4

isoAdvection: After conservative bounding: min(alpha) = -5.9430599546813e-14, max(alpha) = 1 + 0
t = 4,	 sum(alpha*V) = 0.19453365401668,	 dev = -1.3322676295502e-13%,	 1-max(alpha1) = 0 at cell 4994,	 min(alpha1) = -5.9430599546813e-14 at cell 4489
ExecutionTime = 1.76 s  ClockTime = 2 s  timeStepTime = 0.03 s

End

